140
18
Mg   35.730   0.817   29.219
C   33.640   1.935   31.713
C   38.327   0.899   31.597
C   38.013   0.271   26.708
C   33.264   1.468   26.855
N   35.987   1.424   31.377
C   34.941   1.846   32.189
C   35.373   1.938   33.647
C   36.955   1.813   33.548
C   37.125   1.362   32.095
C   37.875   3.016   33.869
C   34.638   0.976   34.666
C   34.920   1.184   36.181
C   35.812   2.337   36.649
O   35.622   3.489   36.350
O   36.732   1.902   37.640
N   37.819   0.380   29.201
C   38.660   0.513   30.282
C   40.045   0.287   29.895
C   40.035   0.166   28.485
C   38.570   0.241   28.068
C   41.205   0.208   30.856
C   41.159   -0.143   27.471
O   40.943   -0.330   26.318
C   42.587   -0.286   27.888
N   35.675   0.996   27.208
C   36.715   0.558   26.345
C   36.316   0.676   24.849
C   34.798   0.888   24.951
C   34.548   1.111   26.422
C   37.106   1.721   24.086
C   33.952   -0.257   24.365
C   33.497   -1.332   25.397
N   33.760   1.518   29.282
C   32.917   1.695   28.184
C   31.693   2.197   28.709
C   31.905   2.318   30.088
C   33.219   1.896   30.342
C   30.475   2.512   27.929
C   31.273   2.588   31.330
O   30.161   3.004   31.615
C   32.296   2.397   32.406
C   32.510   3.691   33.170
O   32.661   4.735   32.599
O   32.521   3.446   34.528
C   32.723   4.624   35.368
C   37.614   2.922   38.242
C   38.421   2.397   39.364
C   38.084   1.898   40.589
C   36.691   2.155   41.165
C   39.137   1.340   41.580
C   39.900   0.111   41.156
C   40.118   -0.849   42.352
C   41.644   -1.003   42.598
C   41.867   -2.229   43.532
C   42.128   0.299   43.480
C   43.035   1.208   42.680
C   44.473   1.365   43.211
C   45.251   2.545   42.457
C   46.657   2.060   42.144
C   45.257   3.902   43.158
C   44.976   4.958   42.119
C   44.581   6.335   42.783
C   45.029   7.578   42.084
C   45.153   8.856   42.995
C   44.179   7.893   40.878
H   39.112   0.782   32.347
H   38.778   0.451   25.950
H   32.460   1.752   26.171
H   35.125   2.963   33.923
H   37.326   0.955   34.107
H   37.361   3.970   33.987
H   38.620   3.007   33.073
H   38.368   2.965   34.840
H   35.093   0.002   34.485
H   33.567   1.013   34.470
H   35.248   0.237   36.612
H   33.912   1.354   36.558
H   41.591   1.197   31.101
H   41.969   -0.467   30.470
H   40.921   -0.252   31.803
H   42.703   -1.261   28.361
H   42.846   0.498   28.599
H   43.324   -0.160   27.095
H   36.558   -0.295   24.418
H   34.460   1.807   24.471
H   36.570   2.459   23.489
H   37.634   1.139   23.331
H   37.891   2.213   24.660
H   34.384   -0.745   23.492
H   33.070   0.257   23.983
H   32.512   -1.077   25.789
H   34.089   -1.388   26.310
H   33.255   -2.288   24.931
H   30.819   3.314   27.276
H   29.666   2.774   28.611
H   30.068   1.685   27.348
H   31.924   1.596   33.045
H   31.759   5.127   35.444
H   33.416   5.404   35.053
H   32.954   4.412   36.412
H   36.908   3.712   38.499
H   38.240   3.332   37.450
H   39.429   2.134   39.045
H   36.229   1.198   41.409
H   35.981   2.654   40.506
H   36.894   2.749   42.056
H   38.796   1.407   42.613
H   39.923   2.095   41.556
H   40.806   0.374   40.611
H   39.299   -0.432   40.426
H   39.666   -1.787   42.029
H   39.673   -0.579   43.310
H   42.233   -1.156   41.694
H   42.255   -3.071   42.959
H   40.901   -2.569   43.905
H   42.521   -2.061   44.388
H   42.596   0.129   44.449
H   41.224   0.860   43.716
H   42.610   2.196   42.502
H   43.213   0.853   41.665
H   45.068   0.465   43.052
H   44.423   1.650   44.262
H   44.804   2.597   41.464
H   47.222   1.828   43.047
H   47.247   2.789   41.588
H   46.620   1.138   41.564
H   46.299   4.073   43.427
H   44.553   4.041   43.978
H   44.138   4.632   41.502
H   45.793   5.130   41.418
H   45.017   6.304   43.781
H   43.492   6.332   42.834
H   45.986   7.366   41.608
H   44.986   8.585   44.037
H   44.410   9.630   42.803
H   46.137   9.304   42.858
H   43.935   8.955   40.858
H   43.315   7.229   40.879
H   44.783   7.568   40.031
