140
33
Mg   -2.442   17.201   25.891
C   -2.666   14.862   28.539
C   -3.457   19.594   28.172
C   -2.703   19.468   23.430
C   -1.758   14.786   23.749
N   -2.773   17.178   28.286
C   -2.892   16.105   29.110
C   -3.353   16.517   30.491
C   -3.657   18.083   30.263
C   -3.282   18.305   28.803
C   -5.103   18.448   30.681
C   -2.482   16.071   31.657
C   -2.444   16.993   32.817
C   -2.096   16.301   34.099
O   -2.060   15.113   34.391
O   -1.792   17.297   35.043
N   -2.665   19.280   25.879
C   -3.103   20.098   26.934
C   -3.170   21.544   26.485
C   -2.852   21.486   25.097
C   -2.750   20.094   24.766
C   -3.547   22.735   27.364
C   -2.672   22.622   24.057
O   -2.420   22.440   22.861
C   -2.659   23.976   24.561
N   -2.333   17.160   23.905
C   -2.571   18.165   23.032
C   -2.529   17.738   21.594
C   -1.941   16.267   21.768
C   -1.996   16.017   23.245
C   -3.879   17.728   20.770
C   -0.548   16.091   21.025
C   0.752   16.154   21.917
N   -2.365   15.208   25.998
C   -1.889   14.382   25.064
C   -1.849   13.029   25.563
C   -2.108   13.195   26.929
C   -2.374   14.553   27.193
C   -1.598   11.741   24.755
C   -2.160   12.458   28.164
O   -1.980   11.306   28.418
C   -2.475   13.552   29.277
C   -1.277   13.573   30.133
O   -0.176   13.998   29.898
O   -1.639   13.062   31.338
C   -0.583   12.889   32.354
C   -1.340   16.827   36.391
C   -0.993   17.960   37.349
C   -1.146   17.965   38.689
C   -1.523   16.697   39.471
C   -0.761   19.169   39.605
C   0.790   19.189   39.927
C   1.598   20.497   39.454
C   1.662   21.608   40.524
C   0.980   22.952   39.996
C   3.103   21.975   41.031
C   3.219   22.482   42.467
C   3.039   21.364   43.469
C   3.142   21.897   44.965
C   4.443   21.440   45.655
C   1.901   21.610   45.776
C   0.784   22.703   45.741
C   -0.471   22.287   44.943
C   -1.583   21.513   45.633
C   -1.484   19.999   45.407
C   -2.999   22.038   45.381
H   -3.814   20.318   28.907
H   -2.901   20.152   22.602
H   -1.479   14.075   22.968
H   -4.334   16.047   30.571
H   -2.877   18.691   30.722
H   -5.552   17.858   31.480
H   -5.764   18.406   29.815
H   -5.051   19.490   30.999
H   -1.450   15.931   31.337
H   -2.921   15.107   31.917
H   -3.349   17.601   32.845
H   -1.620   17.682   32.631
H   -2.634   23.329   27.369
H   -3.809   22.439   28.380
H   -4.339   23.318   26.894
H   -3.649   24.268   24.908
H   -2.404   24.691   23.779
H   -1.975   23.984   25.410
H   -1.816   18.372   21.067
H   -2.622   15.585   21.260
H   -4.539   18.328   21.396
H   -4.424   16.805   20.573
H   -3.843   18.420   19.928
H   -0.484   16.993   20.415
H   -0.517   15.222   20.368
H   1.486   16.801   21.436
H   1.135   15.183   22.232
H   0.633   16.764   22.812
H   -1.006   11.149   25.453
H   -1.098   11.780   23.787
H   -2.570   11.329   24.485
H   -3.349   13.212   29.831
H   -0.786   12.285   33.238
H   -0.330   13.841   32.820
H   0.299   12.480   31.862
H   -0.465   16.179   36.336
H   -2.111   16.247   36.899
H   -0.829   18.910   36.841
H   -0.904   16.753   40.367
H   -1.187   15.875   38.838
H   -2.538   16.422   39.757
H   -1.386   19.233   40.497
H   -1.100   20.040   39.044
H   1.355   18.295   39.663
H   0.782   19.087   41.012
H   1.029   20.874   38.604
H   2.557   20.158   39.063
H   1.141   21.287   41.425
H   -0.105   22.916   39.891
H   1.300   22.945   38.954
H   1.381   23.841   40.482
H   3.487   22.746   40.364
H   3.665   21.055   40.868
H   2.344   23.094   42.686
H   4.195   22.967   42.464
H   3.695   20.507   43.314
H   2.040   20.928   43.429
H   3.174   22.986   44.981
H   4.426   20.356   45.763
H   4.361   21.886   46.647
H   5.326   21.721   45.082
H   2.206   21.545   46.820
H   1.527   20.602   45.598
H   1.162   23.644   45.342
H   0.588   22.912   46.792
H   -0.069   21.866   44.021
H   -0.790   23.269   44.595
H   -1.559   21.578   46.721
H   -1.221   19.584   46.379
H   -0.721   19.855   44.641
H   -2.451   19.639   45.057
H   -3.203   22.859   46.069
H   -3.745   21.251   45.268
H   -3.074   22.604   44.452
