140
18
Mg   2.397   8.654   26.565
C   2.738   10.967   29.188
C   3.200   6.177   28.913
C   2.827   6.477   24.070
C   2.050   11.363   24.355
N   2.940   8.674   28.901
C   2.929   9.680   29.734
C   2.972   9.156   31.177
C   3.166   7.606   31.066
C   3.032   7.455   29.542
C   4.444   7.121   31.602
C   1.519   9.470   31.795
C   1.523   9.416   33.355
C   2.750   8.717   34.146
O   3.862   9.215   34.372
O   2.336   7.508   34.677
N   3.028   6.616   26.439
C   3.343   5.804   27.565
C   3.523   4.474   27.080
C   3.521   4.524   25.649
C   3.235   5.917   25.299
C   3.854   3.323   28.000
C   3.522   3.439   24.634
O   3.532   3.590   23.399
C   3.675   2.027   25.071
N   2.550   8.959   24.544
C   2.564   7.846   23.743
C   2.034   8.207   22.320
C   1.980   9.768   22.372
C   2.125   10.101   23.865
C   2.849   7.697   21.080
C   0.719   10.368   21.830
C   0.980   11.187   20.522
N   2.422   10.732   26.711
C   2.234   11.770   25.752
C   2.386   13.067   26.306
C   2.515   12.806   27.705
C   2.551   11.372   27.860
C   2.228   14.345   25.584
C   2.685   13.388   29.032
O   2.859   14.524   29.479
C   2.628   12.224   30.030
C   3.796   12.351   30.937
O   4.942   12.159   30.539
O   3.308   12.527   32.204
C   4.230   12.279   33.292
C   3.311   6.953   35.669
C   2.518   5.882   36.355
C   2.775   5.399   37.608
C   4.048   5.529   38.382
C   1.616   4.634   38.286
C   1.450   3.103   37.837
C   1.150   2.084   38.973
C   2.364   1.155   39.327
C   3.633   1.856   39.876
C   1.894   0.023   40.289
C   2.279   -1.404   39.838
C   2.837   -2.285   40.978
C   4.294   -2.772   40.660
C   4.432   -4.334   41.063
C   5.412   -1.870   41.390
C   6.324   -1.102   40.407
C   7.333   -0.159   41.088
C   8.853   -0.368   40.702
C   9.713   -0.327   41.999
C   9.380   0.452   39.557
H   3.206   5.401   29.682
H   2.781   5.833   23.189
H   1.922   12.145   23.604
H   3.768   9.664   31.721
H   2.342   6.984   31.415
H   4.109   6.233   32.137
H   4.819   7.824   32.346
H   5.191   7.034   30.813
H   0.815   8.713   31.450
H   1.122   10.461   31.573
H   0.617   8.848   33.568
H   1.467   10.472   33.618
H   2.943   2.799   28.289
H   4.436   3.625   28.870
H   4.618   2.700   27.533
H   2.874   1.777   25.767
H   4.593   1.913   25.649
H   3.446   1.371   24.232
H   1.073   7.710   22.188
H   2.844   10.243   21.908
H   3.737   7.283   21.556
H   3.121   8.501   20.396
H   2.362   6.885   20.540
H   0.233   11.111   22.463
H   -0.040   9.625   21.585
H   2.025   11.219   20.214
H   0.611   12.199   20.690
H   0.403   10.904   19.641
H   1.306   14.265   25.008
H   3.142   14.452   24.999
H   2.113   15.172   26.284
H   1.773   12.251   30.706
H   3.714   11.740   34.086
H   4.480   13.243   33.735
H   5.110   11.658   33.123
H   3.703   7.669   36.391
H   4.193   6.541   35.179
H   1.606   5.560   35.852
H   4.892   5.448   37.697
H   4.153   4.849   39.226
H   4.065   6.550   38.764
H   0.626   5.087   38.250
H   1.895   4.591   39.339
H   2.376   2.830   37.331
H   0.614   3.040   37.141
H   0.260   1.466   38.851
H   0.842   2.592   39.887
H   2.679   0.745   38.368
H   3.999   1.506   40.841
H   3.500   2.924   40.053
H   4.474   1.740   39.191
H   0.818   0.079   40.452
H   2.262   0.192   41.301
H   2.918   -1.391   38.955
H   1.400   -1.958   39.511
H   2.133   -3.108   41.105
H   2.758   -1.814   41.958
H   4.521   -2.746   39.594
H   3.529   -4.803   41.452
H   5.261   -4.474   41.756
H   4.666   -4.873   40.145
H   5.951   -2.508   42.090
H   4.918   -1.145   42.036
H   5.759   -0.456   39.735
H   6.814   -1.821   39.752
H   7.175   -0.159   42.167
H   7.093   0.885   40.888
H   8.870   -1.385   40.313
H   9.290   0.041   42.933
H   10.611   0.254   41.790
H   10.045   -1.337   42.239
H   10.014   1.301   39.811
H   8.576   0.843   38.933
H   9.927   -0.267   38.947
