140
7
Mg   8.598   47.738   25.087
C   6.492   47.786   27.889
C   11.161   48.822   27.210
C   10.684   47.955   22.387
C   5.940   47.310   22.980
N   8.742   48.317   27.385
C   7.768   48.124   28.304
C   8.325   48.424   29.753
C   9.786   48.884   29.437
C   9.939   48.719   27.884
C   10.186   50.253   30.067
C   8.109   47.245   30.749
C   9.100   47.025   31.943
C   8.411   46.420   33.223
O   8.076   45.229   33.312
O   8.176   47.290   34.238
N   10.652   48.303   24.789
C   11.530   48.675   25.751
C   12.826   48.743   25.157
C   12.746   48.432   23.806
C   11.282   48.275   23.599
C   14.037   49.130   26.037
C   13.806   48.481   22.809
O   13.627   48.217   21.628
C   15.308   48.454   23.198
N   8.297   47.772   22.876
C   9.363   47.694   22.006
C   8.834   47.238   20.610
C   7.278   47.008   20.850
C   7.119   47.330   22.309
C   9.403   48.139   19.431
C   6.930   45.614   20.434
C   5.503   45.363   19.882
N   6.689   47.468   25.345
C   5.661   47.433   24.399
C   4.344   47.437   25.041
C   4.685   47.387   26.379
C   6.089   47.435   26.521
C   2.948   47.466   24.360
C   4.078   47.352   27.711
O   2.878   47.277   27.986
C   5.236   47.584   28.743
C   5.161   46.424   29.727
O   5.419   45.256   29.472
O   4.651   46.848   30.945
C   4.264   45.753   31.843
C   7.223   46.851   35.277
C   7.701   47.581   36.464
C   7.303   47.373   37.746
C   6.074   46.495   38.050
C   7.986   48.102   38.892
C   8.887   47.143   39.654
C   10.357   47.655   39.851
C   10.938   47.189   41.197
C   11.393   48.431   42.002
C   12.143   46.239   41.008
C   11.883   44.887   41.819
C   13.090   44.105   42.411
C   12.872   43.523   43.890
C   13.378   42.096   44.059
C   13.562   44.423   44.922
C   12.719   44.295   46.265
C   12.866   45.614   47.074
C   11.446   46.344   47.213
C   11.501   47.806   46.631
C   10.911   46.239   48.567
H   11.937   49.157   27.901
H   11.381   47.783   21.564
H   5.034   47.167   22.387
H   7.796   49.295   30.140
H   10.489   48.125   29.779
H   9.311   50.865   30.283
H   10.838   50.751   29.350
H   10.818   49.945   30.900
H   8.141   46.310   30.190
H   7.122   47.458   31.160
H   9.534   48.003   32.153
H   9.964   46.425   31.657
H   13.866   49.338   27.093
H   14.374   50.097   25.662
H   14.863   48.437   26.193
H   15.722   49.291   23.762
H   15.914   48.271   22.311
H   15.464   47.592   23.847
H   9.341   46.294   20.410
H   6.733   47.676   20.183
H   8.579   48.766   19.089
H   9.738   47.500   18.614
H   10.328   48.614   19.759
H   6.860   44.974   21.313
H   7.607   45.262   19.656
H   5.517   44.523   19.188
H   4.984   46.233   19.482
H   4.959   45.044   20.772
H   2.434   46.573   24.715
H   3.065   47.310   23.288
H   2.374   48.380   24.515
H   5.135   48.547   29.242
H   3.673   46.189   32.649
H   5.081   45.258   32.367
H   3.565   45.067   31.364
H   7.338   45.786   35.479
H   6.213   47.136   34.981
H   8.650   48.104   36.349
H   5.549   46.855   38.935
H   6.397   45.511   38.390
H   5.363   46.392   37.230
H   7.167   48.544   39.460
H   8.597   48.958   38.605
H   9.033   46.249   39.048
H   8.519   46.828   40.630
H   10.301   48.734   39.707
H   11.038   47.334   39.064
H   10.183   46.728   41.834
H   10.782   49.304   41.771
H   12.465   48.613   41.941
H   11.095   48.188   43.022
H   13.110   46.688   41.234
H   12.205   45.806   40.009
H   11.409   44.353   40.996
H   11.157   45.131   42.595
H   13.963   44.756   42.437
H   13.372   43.215   41.848
H   11.810   43.463   44.125
H   13.899   41.973   45.008
H   14.108   41.738   43.333
H   12.527   41.436   43.888
H   13.369   45.409   44.501
H   14.640   44.341   45.061
H   13.278   43.564   46.849
H   11.696   43.926   46.190
H   13.613   46.241   46.588
H   13.185   45.510   48.111
H   10.842   45.793   46.492
H   12.469   48.131   46.249
H   11.218   48.544   47.382
H   10.811   47.949   45.799
H   11.748   46.152   49.260
H   10.403   45.280   48.675
H   10.257   47.024   48.946
