140
26
Mg   25.271   -8.317   46.982
C   27.093   -5.830   45.569
C   22.574   -7.608   45.045
C   23.795   -11.380   47.922
C   28.091   -9.293   48.834
N   24.875   -6.900   45.573
C   25.770   -5.919   45.132
C   25.135   -5.173   43.967
C   23.618   -5.469   44.123
C   23.674   -6.720   45.004
C   22.894   -4.294   44.814
C   25.614   -5.627   42.582
C   26.103   -4.545   41.633
C   25.380   -4.417   40.289
O   24.227   -4.011   40.150
O   26.110   -4.899   39.194
N   23.358   -9.312   46.583
C   22.447   -8.855   45.715
C   21.355   -9.852   45.685
C   21.723   -10.974   46.464
C   22.995   -10.583   47.083
C   20.159   -9.621   44.738
C   20.820   -12.195   46.674
O   19.860   -12.372   45.935
C   21.135   -13.286   47.633
N   25.779   -10.063   48.164
C   25.056   -11.165   48.455
C   25.843   -12.196   49.237
C   27.239   -11.587   49.504
C   26.999   -10.202   48.855
C   25.224   -12.646   50.570
C   28.419   -12.501   48.979
C   29.557   -12.888   49.981
N   27.227   -7.658   47.277
C   28.286   -8.068   48.027
C   29.455   -7.264   47.711
C   29.060   -6.304   46.712
C   27.714   -6.633   46.531
C   30.763   -7.433   48.410
C   29.478   -5.306   45.875
O   30.593   -4.813   45.701
C   28.245   -4.976   44.900
C   28.039   -3.531   44.819
O   27.996   -2.840   43.848
O   27.906   -3.102   46.131
C   27.693   -1.624   46.292
C   25.451   -4.952   37.898
C   24.769   -6.266   37.716
C   25.216   -7.302   36.936
C   26.600   -7.483   36.265
C   24.271   -8.530   36.896
C   22.976   -8.386   35.937
C   23.011   -9.258   34.594
C   23.162   -8.415   33.291
C   22.055   -8.703   32.325
C   24.501   -8.733   32.554
C   24.614   -7.746   31.365
C   25.931   -6.916   31.230
C   25.717   -5.445   30.775
C   25.762   -4.479   31.958
C   26.537   -4.937   29.581
C   25.933   -5.251   28.160
C   24.759   -4.295   27.779
C   23.357   -4.945   27.772
C   22.635   -4.779   26.400
C   22.481   -4.334   28.861
H   21.676   -7.301   44.504
H   23.377   -12.384   48.019
H   28.962   -9.421   49.480
H   25.238   -4.105   44.159
H   23.096   -5.730   43.203
H   23.238   -3.331   44.437
H   22.890   -4.186   45.899
H   21.849   -4.384   44.516
H   24.757   -6.008   42.027
H   26.314   -6.443   42.760
H   27.153   -4.718   41.394
H   26.124   -3.587   42.153
H   19.794   -8.594   44.753
H   19.297   -10.211   45.048
H   20.454   -9.901   43.726
H   21.301   -12.898   48.638
H   22.033   -13.798   47.289
H   20.352   -14.044   47.631
H   25.855   -13.179   48.767
H   27.374   -11.378   50.565
H   24.355   -11.996   50.666
H   25.786   -12.527   51.496
H   24.757   -13.626   50.469
H   28.930   -11.941   48.196
H   28.042   -13.453   48.604
H   29.518   -12.387   50.948
H   30.530   -12.685   49.532
H   29.539   -13.968   50.126
H   31.158   -8.446   48.490
H   30.540   -7.005   49.387
H   31.447   -6.826   47.818
H   28.434   -5.315   43.882
H   28.515   -1.227   46.888
H   26.688   -1.510   46.697
H   27.579   -1.024   45.389
H   26.256   -5.010   37.166
H   24.827   -4.079   37.707
H   23.777   -6.382   38.152
H   27.316   -6.780   36.691
H   26.458   -7.265   35.207
H   27.061   -8.461   36.403
H   23.761   -8.770   37.829
H   24.900   -9.351   36.552
H   22.840   -7.332   35.695
H   22.149   -8.621   36.607
H   22.168   -9.948   34.537
H   23.936   -9.815   34.740
H   23.087   -7.351   33.518
H   21.547   -9.645   32.532
H   22.328   -8.726   31.270
H   21.311   -7.914   32.433
H   24.422   -9.719   32.094
H   25.267   -8.558   33.309
H   23.709   -7.142   31.309
H   24.761   -8.424   30.524
H   26.531   -7.424   30.475
H   26.439   -7.019   32.188
H   24.743   -5.398   30.287
H   24.880   -3.841   31.905
H   26.648   -3.854   32.076
H   25.668   -5.011   32.904
H   27.537   -5.368   29.619
H   26.631   -3.858   29.710
H   25.677   -6.297   28.333
H   26.743   -5.203   27.432
H   25.046   -3.898   26.805
H   24.761   -3.503   28.528
H   23.392   -6.014   27.979
H   23.252   -4.204   25.708
H   21.745   -4.150   26.414
H   22.414   -5.793   26.066
H   21.433   -4.229   28.580
H   22.803   -3.342   29.178
H   22.419   -5.040   29.689
