140
38
Mg   41.536   8.089   29.613
C   43.368   9.478   32.312
C   39.424   6.696   32.122
C   39.996   6.350   27.264
C   44.044   8.928   27.473
N   41.574   7.927   31.916
C   42.322   8.688   32.763
C   41.808   8.640   34.187
C   40.734   7.491   34.128
C   40.521   7.310   32.640
C   41.138   6.093   34.715
C   41.174   10.045   34.565
C   40.369   10.084   35.890
C   41.079   10.793   37.063
O   42.197   10.462   37.504
O   40.291   11.791   37.558
N   39.758   6.911   29.621
C   38.990   6.573   30.693
C   37.733   6.004   30.067
C   37.881   6.000   28.646
C   39.276   6.413   28.469
C   36.719   5.605   30.953
C   36.917   5.558   27.546
O   37.062   5.771   26.345
C   35.664   4.944   27.989
N   42.026   7.629   27.699
C   41.211   6.921   26.931
C   41.748   6.785   25.529
C   42.880   7.824   25.567
C   42.994   8.186   27.014
C   42.197   5.344   25.029
C   42.673   8.990   24.584
C   41.791   10.206   25.066
N   43.419   8.990   29.706
C   44.341   9.303   28.766
C   45.426   10.128   29.292
C   45.068   10.238   30.693
C   43.850   9.523   30.903
C   46.615   10.798   28.605
C   45.496   10.848   31.937
O   46.452   11.513   32.285
C   44.345   10.462   33.003
C   44.978   9.887   34.195
O   45.688   8.879   34.186
O   44.750   10.699   35.253
C   45.641   10.518   36.430
C   40.866   12.711   38.537
C   40.215   12.259   39.793
C   40.672   12.259   41.084
C   42.022   12.774   41.692
C   39.888   11.364   42.151
C   38.762   12.012   42.944
C   37.452   11.185   42.932
C   36.539   11.525   44.166
C   36.623   10.489   45.280
C   35.014   11.844   43.741
C   34.469   13.309   43.858
C   33.526   13.315   45.125
C   33.939   14.359   46.145
C   34.971   13.774   47.038
C   32.674   14.955   46.817
C   32.403   16.445   46.382
C   30.934   16.682   45.930
C   30.231   17.644   46.884
C   29.822   16.907   48.167
C   29.015   18.214   46.141
H   38.832   6.371   32.980
H   39.468   5.888   26.427
H   44.769   9.336   26.765
H   42.569   8.396   34.929
H   39.794   7.836   34.558
H   40.305   5.872   35.383
H   42.064   6.219   35.276
H   41.292   5.213   34.092
H   40.578   10.454   33.749
H   41.957   10.784   34.736
H   39.924   9.124   36.152
H   39.516   10.664   35.537
H   36.857   5.797   32.017
H   36.574   4.547   30.732
H   35.817   6.139   30.656
H   35.083   4.573   27.144
H   35.129   5.723   28.532
H   35.803   4.155   28.729
H   40.900   7.138   24.943
H   43.823   7.339   25.317
H   43.218   5.354   24.647
H   41.498   5.052   24.246
H   42.286   4.693   25.899
H   42.022   8.619   23.793
H   43.623   9.383   24.222
H   40.960   10.373   24.380
H   42.526   10.987   25.262
H   41.216   10.100   25.986
H   46.256   11.073   27.614
H   47.363   10.023   28.436
H   47.007   11.664   29.139
H   43.746   11.355   33.181
H   46.521   9.927   36.174
H   45.060   10.118   37.261
H   46.108   11.473   36.670
H   40.524   13.731   38.362
H   41.943   12.604   38.673
H   39.330   11.671   39.551
H   41.876   13.776   42.094
H   42.773   12.923   40.916
H   42.466   12.025   42.348
H   40.635   10.946   42.826
H   39.504   10.555   41.529
H   38.532   12.947   42.433
H   39.132   12.241   43.943
H   37.641   10.112   42.953
H   36.919   11.457   42.021
H   37.022   12.384   44.633
H   36.048   9.566   45.198
H   36.610   10.949   46.268
H   37.632   10.082   45.214
H   34.497   11.049   44.277
H   34.921   11.515   42.706
H   33.838   13.505   42.992
H   35.206   14.106   43.960
H   33.440   12.324   45.570
H   32.511   13.543   44.797
H   34.549   15.150   45.708
H   34.492   12.957   47.578
H   35.267   14.372   47.900
H   35.848   13.301   46.597
H   32.824   14.843   47.891
H   31.842   14.281   46.611
H   33.034   16.725   45.539
H   32.561   17.082   47.252
H   30.370   15.757   46.045
H   31.011   17.146   44.947
H   30.905   18.460   47.145
H   29.997   15.841   48.312
H   28.749   16.929   48.357
H   30.312   17.284   49.065
H   28.198   18.479   46.813
H   28.660   17.422   45.481
H   29.218   19.137   45.599
