140
17
Mg   26.029   50.635   26.373
C   24.060   51.482   29.152
C   28.466   49.578   28.632
C   28.071   50.107   23.797
C   23.492   51.770   24.256
N   26.175   50.590   28.667
C   25.229   50.897   29.597
C   25.627   50.557   31.060
C   27.206   50.310   30.882
C   27.362   50.152   29.320
C   28.172   51.396   31.431
C   24.662   49.479   31.703
C   24.023   49.800   33.108
C   24.942   50.233   34.248
O   25.950   50.982   34.151
O   24.490   49.755   35.450
N   27.921   49.840   26.153
C   28.755   49.449   27.223
C   29.980   48.902   26.699
C   29.952   49.177   25.236
C   28.617   49.756   25.017
C   30.970   48.151   27.571
C   31.073   48.856   24.246
O   31.113   49.298   23.106
C   32.152   47.980   24.599
N   25.877   50.915   24.316
C   26.838   50.605   23.455
C   26.348   50.767   22.039
C   24.819   50.984   22.187
C   24.694   51.258   23.691
C   27.130   51.829   21.241
C   23.878   49.865   21.696
C   22.706   50.325   20.902
N   24.154   51.525   26.640
C   23.231   51.976   25.703
C   22.044   52.452   26.412
C   22.357   52.335   27.780
C   23.612   51.802   27.823
C   20.786   52.922   25.779
C   21.848   52.624   29.107
O   20.794   53.190   29.436
C   22.921   52.054   30.077
C   23.363   53.144   30.991
O   24.438   53.678   30.997
O   22.500   53.167   32.060
C   22.970   53.922   33.182
C   25.205   50.197   36.634
C   24.889   49.393   37.857
C   25.386   49.587   39.137
C   26.191   50.753   39.590
C   25.155   48.499   40.263
C   26.354   47.638   40.687
C   26.033   46.119   40.421
C   26.757   45.146   41.406
C   27.102   43.908   40.596
C   25.817   44.745   42.599
C   26.349   44.920   44.069
C   25.628   46.007   44.862
C   26.499   46.621   45.975
C   25.871   46.485   47.384
C   26.760   48.120   45.641
C   27.986   48.259   44.650
C   27.850   49.560   43.844
C   29.213   49.968   43.340
C   29.296   51.484   43.410
C   29.491   49.383   41.943
H   29.239   49.259   29.335
H   28.607   49.837   22.885
H   22.635   51.975   23.612
H   25.461   51.503   31.575
H   27.434   49.349   31.342
H   27.581   52.284   31.657
H   28.856   51.668   30.627
H   28.716   51.014   32.295
H   25.150   48.515   31.841
H   23.763   49.320   31.108
H   23.487   48.920   33.464
H   23.295   50.582   32.891
H   31.986   48.388   27.254
H   30.886   47.070   27.464
H   30.898   48.378   28.634
H   32.710   47.883   23.668
H   31.698   47.042   24.918
H   32.872   48.443   25.274
H   26.635   49.819   21.584
H   24.564   51.974   21.809
H   28.097   51.782   21.742
H   26.598   52.766   21.408
H   27.165   51.671   20.163
H   23.649   49.303   22.602
H   24.397   49.293   20.927
H   22.629   49.650   20.049
H   22.838   51.296   20.424
H   21.736   50.198   21.383
H   19.983   52.821   26.508
H   20.522   52.308   24.917
H   20.790   53.992   25.575
H   22.519   51.182   30.593
H   23.109   54.931   32.791
H   23.916   53.574   33.597
H   22.233   53.900   33.984
H   24.998   51.260   36.762
H   26.261   50.016   36.434
H   24.284   48.508   37.664
H   26.159   50.831   40.676
H   25.872   51.655   39.068
H   27.224   50.588   39.285
H   24.340   47.883   39.883
H   24.806   48.983   41.175
H   26.600   47.787   41.738
H   27.248   47.973   40.163
H   26.464   45.949   39.435
H   24.986   45.818   40.388
H   27.679   45.618   41.746
H   26.426   43.547   39.821
H   27.246   43.084   41.295
H   28.009   44.096   40.022
H   25.507   43.703   42.520
H   24.889   45.280   42.396
H   27.394   45.230   44.073
H   26.323   43.918   44.496
H   24.700   45.709   45.351
H   25.393   46.792   44.144
H   27.523   46.255   46.057
H   25.244   45.594   47.355
H   25.380   47.349   47.831
H   26.632   46.121   48.075
H   27.057   48.653   46.544
H   25.832   48.586   45.309
H   28.018   47.363   44.030
H   28.888   48.240   45.262
H   27.327   50.281   44.472
H   27.063   49.403   43.106
H   29.978   49.546   43.993
H   28.360   51.792   42.943
H   30.002   51.789   42.638
H   29.463   51.859   44.420
H   30.500   49.674   41.648
H   28.685   49.682   41.273
H   29.576   48.300   41.856
