140
35
Mg   41.162   8.621   29.696
C   43.004   10.031   32.388
C   39.271   6.992   31.852
C   39.924   6.980   27.084
C   43.717   9.943   27.489
N   41.114   8.609   31.873
C   41.877   9.277   32.794
C   41.375   9.088   34.254
C   40.317   7.944   34.034
C   40.280   7.752   32.480
C   40.675   6.561   34.719
C   40.868   10.398   34.856
C   40.952   10.435   36.352
C   40.927   11.703   37.110
O   40.333   12.728   36.791
O   41.554   11.498   38.365
N   39.676   7.307   29.522
C   38.959   6.768   30.521
C   37.864   5.940   29.973
C   38.062   5.992   28.581
C   39.307   6.762   28.348
C   36.861   5.117   30.859
C   37.108   5.359   27.564
O   37.449   5.450   26.393
C   35.755   4.899   27.861
N   41.760   8.464   27.615
C   40.984   7.751   26.718
C   41.361   7.935   25.271
C   42.486   9.028   25.349
C   42.650   9.213   26.869
C   41.753   6.590   24.551
C   42.108   10.355   24.634
C   40.950   11.228   25.284
N   43.111   9.611   29.886
C   43.951   10.135   28.892
C   44.964   10.917   29.578
C   44.660   10.970   30.917
C   43.498   10.067   31.052
C   46.149   11.582   28.916
C   45.016   11.507   32.271
O   45.883   12.301   32.712
C   43.887   10.915   33.271
C   44.550   10.270   34.354
O   45.359   9.362   34.397
O   44.123   10.831   35.522
C   44.511   10.343   36.865
C   41.303   12.548   39.332
C   40.655   12.009   40.571
C   40.791   12.377   41.864
C   41.552   13.568   42.380
C   40.146   11.518   42.954
C   38.610   11.529   42.776
C   37.918   11.200   44.065
C   36.798   12.180   44.659
C   36.767   12.352   46.183
C   35.486   11.534   44.133
C   34.327   12.492   44.118
C   33.333   12.189   45.208
C   32.965   13.408   46.100
C   32.533   12.944   47.537
C   31.859   14.291   45.443
C   32.028   15.786   45.707
C   30.697   16.559   45.312
C   30.109   17.479   46.352
C   28.528   17.399   46.417
C   30.632   18.949   46.026
H   38.711   6.627   32.714
H   39.478   6.541   26.189
H   44.400   10.377   26.756
H   42.210   8.677   34.823
H   39.363   8.193   34.497
H   41.655   6.583   35.194
H   40.732   5.811   33.930
H   39.883   6.337   35.434
H   39.820   10.429   34.557
H   41.360   11.276   34.437
H   41.825   9.864   36.668
H   40.072   9.856   36.630
H   36.875   4.111   30.438
H   35.833   5.462   30.745
H   37.180   4.977   31.892
H   35.407   4.450   26.931
H   35.207   5.772   28.216
H   35.766   4.174   28.675
H   40.448   8.372   24.866
H   43.373   8.584   24.897
H   41.018   6.023   23.980
H   41.958   5.911   25.378
H   42.582   6.754   23.862
H   41.847   10.076   23.613
H   43.037   10.924   24.680
H   40.559   10.674   26.137
H   40.218   11.446   24.506
H   41.384   12.163   25.640
H   46.555   12.456   29.425
H   45.946   11.818   27.872
H   46.990   10.888   28.937
H   43.269   11.722   33.666
H   44.291   9.305   37.117
H   43.867   10.972   37.480
H   45.559   10.559   37.069
H   40.542   13.248   38.987
H   42.159   13.150   39.638
H   40.197   11.022   40.514
H   42.465   13.265   42.892
H   40.981   14.058   43.169
H   41.819   14.203   41.535
H   40.418   11.952   43.916
H   40.390   10.456   42.908
H   38.346   10.795   42.015
H   38.404   12.521   42.373
H   38.728   11.092   44.786
H   37.512   10.200   43.909
H   36.881   13.177   44.228
H   36.594   13.365   46.546
H   37.669   11.900   46.596
H   35.889   11.782   46.488
H   35.423   10.649   44.767
H   35.712   11.266   43.101
H   33.950   12.475   43.095
H   34.621   13.536   44.223
H   33.476   11.363   45.905
H   32.413   11.971   44.665
H   33.818   14.039   46.350
H   32.060   13.791   48.033
H   33.369   12.862   48.231
H   31.880   12.072   47.567
H   30.885   13.943   45.786
H   31.949   14.126   44.369
H   32.825   16.207   45.094
H   32.288   16.089   46.721
H   29.914   15.955   44.854
H   30.977   17.164   44.450
H   30.449   17.182   47.344
H   28.165   16.678   45.685
H   28.094   18.377   46.209
H   28.361   17.052   47.437
H   29.991   19.601   45.433
H   31.570   18.907   45.472
H   30.911   19.366   46.994
