140
29
Mg   46.164   44.930   43.815
C   42.736   44.708   43.175
C   46.454   41.543   43.142
C   49.517   45.292   43.521
C   45.897   48.489   43.747
N   44.763   43.389   43.087
C   43.373   43.468   42.945
C   42.796   42.114   42.757
C   43.976   41.154   43.042
C   45.136   42.073   43.194
C   43.716   40.312   44.335
C   41.955   41.888   41.376
C   42.319   42.615   40.069
C   42.488   41.802   38.847
O   42.105   40.659   38.623
O   43.157   42.577   37.895
N   47.789   43.552   43.402
C   47.691   42.199   43.103
C   48.947   41.593   42.962
C   49.880   42.628   43.152
C   49.113   43.888   43.388
C   49.184   40.126   42.657
C   51.332   42.486   42.984
O   51.840   41.462   42.630
C   52.186   43.738   43.167
N   47.552   46.601   43.931
C   48.859   46.452   43.741
C   49.668   47.769   43.703
C   48.513   48.825   43.802
C   47.231   47.946   43.733
C   50.835   47.811   44.723
C   48.432   50.007   42.730
C   48.347   51.428   43.295
N   44.673   46.298   43.756
C   44.703   47.759   43.727
C   43.284   48.209   43.850
C   42.582   47.031   43.635
C   43.434   45.924   43.550
C   42.843   49.652   43.856
C   41.163   46.596   43.433
O   40.190   47.280   43.302
C   41.225   45.038   43.180
C   40.425   44.265   44.239
O   39.450   43.587   44.063
O   41.213   44.337   45.360
C   40.959   43.278   46.348
C   43.524   41.859   36.782
C   44.360   42.747   35.960
C   45.162   42.352   34.917
C   45.380   40.909   34.516
C   45.920   43.361   34.139
C   45.804   43.234   32.634
C   45.118   44.450   31.987
C   45.415   44.473   30.420
C   45.857   45.910   30.052
C   44.147   44.049   29.540
C   44.272   42.615   28.972
C   43.645   42.290   27.600
C   44.109   43.172   26.395
C   43.047   44.194   25.819
C   44.721   42.366   25.164
C   46.057   42.906   24.589
C   46.106   42.535   23.126
C   46.477   43.716   22.199
C   45.679   43.612   20.839
C   48.005   43.844   22.052
H   46.550   40.467   42.985
H   50.565   45.520   43.313
H   45.783   49.574   43.781
H   42.134   42.164   43.622
H   44.238   40.492   42.217
H   44.139   39.317   44.470
H   42.633   40.288   44.456
H   44.145   40.853   45.179
H   40.879   41.912   41.544
H   41.914   40.811   41.214
H   43.302   43.083   40.111
H   41.597   43.406   39.865
H   50.194   39.725   42.573
H   48.510   39.582   41.996
H   49.136   39.786   43.692
H   52.069   44.176   44.158
H   52.026   44.375   42.297
H   53.209   43.373   43.078
H   50.186   47.827   42.746
H   48.561   49.273   44.794
H   50.616   48.698   45.318
H   51.721   47.790   44.088
H   50.862   46.877   45.286
H   47.583   49.796   42.080
H   49.405   49.896   42.251
H   49.187   52.007   42.909
H   48.418   51.374   44.381
H   47.398   51.898   43.035
H   41.775   49.698   43.646
H   43.390   50.317   43.187
H   42.994   49.991   44.881
H   40.795   44.764   42.217
H   40.097   42.637   46.161
H   40.810   43.675   47.352
H   41.808   42.619   46.530
H   42.557   41.778   36.285
H   44.059   40.913   36.859
H   44.310   43.807   36.209
H   46.357   40.699   34.080
H   44.759   40.607   33.672
H   45.287   40.287   35.406
H   46.980   43.285   34.379
H   45.525   44.310   34.502
H   45.228   42.338   32.402
H   46.805   43.123   32.216
H   45.373   45.396   32.463
H   44.071   44.280   32.242
H   46.206   43.779   30.136
H   46.451   45.868   29.139
H   46.304   46.410   30.912
H   45.019   46.592   29.910
H   44.089   44.710   28.675
H   43.231   44.095   30.130
H   43.736   42.005   29.699
H   45.313   42.311   28.864
H   42.586   42.445   27.809
H   43.731   41.227   27.373
H   44.999   43.659   26.793
H   43.322   45.237   25.976
H   42.179   44.029   26.456
H   42.792   44.118   24.762
H   43.894   42.198   24.474
H   44.825   41.391   25.639
H   46.937   42.443   25.035
H   46.047   43.963   24.854
H   45.167   42.119   22.760
H   46.806   41.748   22.847
H   46.111   44.603   22.716
H   45.397   42.604   20.537
H   46.299   43.823   19.968
H   44.826   44.289   20.800
H   48.536   43.228   22.777
H   48.371   44.868   22.132
H   48.191   43.392   21.078
