140
30
Mg   46.592   45.017   42.786
C   43.180   44.154   42.785
C   47.340   41.760   41.777
C   49.496   46.116   41.771
C   45.576   48.441   43.189
N   45.393   43.218   42.351
C   44.017   43.113   42.507
C   43.567   41.716   42.145
C   44.914   40.929   42.018
C   45.960   42.023   41.998
C   45.106   39.805   43.024
C   42.571   41.489   40.934
C   43.104   42.190   39.631
C   43.342   41.256   38.414
O   42.618   40.281   38.200
O   44.296   41.747   37.529
N   48.217   44.047   42.037
C   48.386   42.704   41.764
C   49.743   42.505   41.501
C   50.384   43.747   41.358
C   49.376   44.691   41.793
C   50.371   41.082   41.315
C   51.896   43.916   41.042
O   52.587   42.968   40.718
C   52.554   45.314   41.148
N   47.350   47.008   42.553
C   48.667   47.131   42.173
C   49.181   48.560   42.254
C   47.858   49.330   42.687
C   46.845   48.222   42.821
C   50.427   48.676   43.169
C   47.330   50.541   41.867
C   47.234   51.871   42.639
N   44.846   46.111   43.126
C   44.563   47.444   43.305
C   43.156   47.658   43.408
C   42.615   46.417   43.188
C   43.672   45.521   42.973
C   42.389   48.973   43.707
C   41.411   45.731   43.173
O   40.288   46.221   43.270
C   41.689   44.281   42.698
C   40.982   43.317   43.654
O   40.221   42.444   43.308
O   41.482   43.495   44.919
C   41.352   42.315   45.833
C   44.256   41.122   36.226
C   44.909   42.087   35.267
C   45.974   41.915   34.461
C   46.663   40.606   34.268
C   46.565   43.095   33.528
C   46.108   43.170   32.108
C   45.346   44.499   31.858
C   45.230   44.693   30.318
C   44.979   46.142   29.970
C   44.014   43.825   29.936
C   44.494   42.842   28.846
C   43.636   42.880   27.581
C   44.311   43.840   26.521
C   43.410   45.065   26.140
C   44.850   43.134   25.246
C   46.225   43.700   24.837
C   46.310   44.131   23.362
C   47.702   43.598   22.761
C   48.020   44.396   21.499
C   47.593   42.029   22.479
H   47.457   40.694   41.569
H   50.482   46.461   41.454
H   45.183   49.429   43.439
H   42.896   41.346   42.920
H   44.987   40.507   41.015
H   45.748   40.226   43.798
H   45.582   38.911   42.622
H   44.168   39.655   43.558
H   41.543   41.773   41.155
H   42.402   40.420   40.805
H   44.054   42.722   39.681
H   42.337   42.886   39.291
H   50.890   41.073   40.357
H   49.678   40.241   41.287
H   51.072   40.821   42.107
H   52.265   45.778   42.092
H   52.325   45.893   40.253
H   53.631   45.172   41.240
H   49.592   48.830   41.281
H   48.025   49.640   43.718
H   50.893   47.749   43.504
H   50.088   49.318   43.982
H   51.220   49.226   42.662
H   46.333   50.295   41.502
H   47.995   50.642   41.009
H   47.946   52.557   42.179
H   47.459   51.656   43.683
H   46.273   52.380   42.570
H   41.337   48.695   43.770
H   42.638   49.629   42.873
H   42.725   49.342   44.676
H   41.213   44.092   41.736
H   41.284   41.446   45.178
H   40.358   42.398   46.273
H   42.098   42.217   46.622
H   43.195   41.039   35.990
H   44.509   40.066   36.133
H   44.540   43.112   35.306
H   47.618   40.701   33.751
H   46.147   39.859   33.665
H   46.825   40.203   35.267
H   47.640   43.052   33.702
H   46.266   43.991   34.071
H   45.495   42.287   31.925
H   46.965   42.971   31.466
H   45.962   45.271   32.318
H   44.462   44.371   32.482
H   46.177   44.336   29.913
H   45.746   46.842   30.303
H   44.065   46.388   30.510
H   44.692   46.186   28.920
H   43.171   44.432   29.604
H   43.598   43.284   30.786
H   44.364   41.844   29.265
H   45.571   42.938   28.706
H   42.634   43.219   27.843
H   43.464   41.842   27.297
H   45.079   44.350   27.103
H   43.840   46.005   26.486
H   42.394   44.982   26.524
H   43.275   45.123   25.060
H   44.159   43.303   24.419
H   45.059   42.124   25.598
H   46.996   42.988   25.132
H   46.446   44.590   25.426
H   46.354   45.220   23.322
H   45.384   43.835   22.870
H   48.500   43.796   23.476
H   47.177   44.978   21.126
H   48.325   43.714   20.705
H   48.797   45.156   21.580
H   48.490   41.740   21.932
H   46.694   41.820   21.898
H   47.601   41.620   23.489
