140
31
Mg   46.491   34.852   27.537
C   44.657   33.013   30.035
C   46.747   37.303   29.910
C   47.510   36.692   25.180
C   45.461   32.263   25.295
N   45.714   35.196   29.675
C   45.151   34.233   30.513
C   45.259   34.636   32.040
C   45.473   36.139   31.849
C   46.158   36.211   30.450
C   44.204   37.027   31.921
C   46.500   33.893   32.640
C   46.726   34.029   34.193
C   45.799   34.997   34.921
O   44.584   34.894   35.034
O   46.525   36.031   35.450
N   47.134   36.684   27.573
C   47.232   37.567   28.612
C   47.703   38.866   28.159
C   48.004   38.744   26.756
C   47.453   37.373   26.409
C   47.987   40.102   29.049
C   48.626   39.714   25.808
O   48.832   39.411   24.589
C   49.006   41.125   26.286
N   46.529   34.446   25.545
C   47.049   35.449   24.753
C   46.970   35.048   23.263
C   46.211   33.673   23.248
C   45.969   33.451   24.760
C   46.308   36.148   22.330
C   46.763   32.500   22.413
C   45.880   32.110   21.210
N   45.420   32.985   27.648
C   45.239   32.042   26.663
C   44.642   30.939   27.219
C   44.390   31.231   28.542
C   44.850   32.512   28.709
C   44.303   29.678   26.452
C   43.805   30.655   29.743
O   43.304   29.525   29.933
C   43.787   31.836   30.693
C   44.000   31.420   32.121
O   45.046   30.871   32.459
O   43.013   31.863   32.940
C   43.241   31.712   34.343
C   45.804   36.883   36.401
C   46.825   37.967   36.772
C   46.954   38.706   37.928
C   46.023   38.452   39.063
C   48.025   39.740   38.002
C   47.818   40.864   36.987
C   49.158   41.389   36.510
C   49.034   42.737   35.780
C   50.088   42.858   34.699
C   49.058   43.879   36.874
C   47.921   44.940   36.618
C   46.722   44.730   37.560
C   46.412   45.714   38.682
C   47.665   45.731   39.675
C   45.152   45.270   39.495
C   44.127   46.366   39.523
C   42.696   45.834   39.815
C   41.909   45.630   38.517
C   41.497   46.914   37.743
C   40.621   44.853   38.871
H   46.932   38.137   30.590
H   47.847   37.239   24.297
H   45.257   31.470   24.573
H   44.352   34.377   32.586
H   46.183   36.403   32.633
H   43.312   36.468   31.639
H   44.330   37.868   31.239
H   44.066   37.609   32.832
H   47.426   34.237   32.179
H   46.424   32.820   32.463
H   47.741   34.341   34.438
H   46.708   33.008   34.576
H   47.538   40.003   30.037
H   47.636   41.032   28.602
H   49.015   40.186   29.399
H   49.708   41.028   27.114
H   48.093   41.616   26.623
H   49.458   41.677   25.462
H   47.963   34.939   22.827
H   45.233   33.863   22.806
H   46.081   36.936   23.048
H   45.400   35.866   21.797
H   47.072   36.545   21.662
H   46.941   31.619   23.029
H   47.731   32.780   21.997
H   46.418   32.614   20.408
H   44.855   32.431   21.397
H   45.858   31.031   21.051
H   45.269   29.173   26.441
H   43.908   29.849   25.450
H   43.600   29.030   26.976
H   42.739   32.100   30.833
H   43.973   30.974   34.669
H   42.303   31.397   34.800
H   43.425   32.694   34.779
H   45.531   36.327   37.298
H   44.917   37.432   36.087
H   47.549   38.127   35.972
H   46.591   38.542   39.988
H   45.566   37.463   39.012
H   45.224   39.193   39.081
H   48.981   39.231   37.877
H   48.044   40.135   39.017
H   47.422   41.736   37.509
H   47.070   40.683   36.216
H   49.593   40.600   35.897
H   49.719   41.471   37.442
H   48.091   42.677   35.235
H   50.668   43.771   34.832
H   49.603   42.890   33.723
H   50.785   42.021   34.700
H   49.960   44.490   36.849
H   48.859   43.485   37.871
H   47.605   44.905   35.575
H   48.332   45.932   36.804
H   46.644   43.755   38.042
H   45.912   44.754   36.831
H   46.267   46.731   38.318
H   47.706   46.621   40.303
H   48.606   45.539   39.159
H   47.479   44.867   40.312
H   45.506   45.019   40.495
H   44.745   44.345   39.087
H   44.041   46.958   38.612
H   44.412   47.057   40.316
H   42.360   46.657   40.446
H   42.866   44.912   40.372
H   42.404   45.052   37.737
H   41.274   47.689   38.476
H   40.621   46.817   37.102
H   42.338   47.168   37.098
H   39.773   45.528   38.762
H   40.682   44.467   39.889
H   40.584   44.080   38.104
