140
35
Mg   46.905   45.440   43.864
C   43.673   45.179   43.143
C   47.422   42.149   42.873
C   50.271   46.062   43.928
C   46.488   48.999   44.266
N   45.768   43.878   43.115
C   44.446   44.036   42.812
C   43.925   42.852   42.050
C   44.973   41.744   42.477
C   46.164   42.668   42.663
C   44.592   40.916   43.763
C   43.679   43.100   40.499
C   42.630   42.125   39.897
C   42.947   41.481   38.493
O   42.895   40.313   38.242
O   43.182   42.503   37.580
N   48.653   44.225   43.522
C   48.641   42.851   43.183
C   49.946   42.298   43.362
C   50.729   43.465   43.574
C   49.892   44.669   43.746
C   50.321   40.897   43.085
C   52.283   43.478   43.503
O   52.907   42.455   43.455
C   53.111   44.760   43.558
N   48.217   47.419   43.860
C   49.565   47.247   43.921
C   50.298   48.580   44.243
C   49.081   49.523   44.330
C   47.874   48.618   44.146
C   51.113   48.437   45.590
C   49.182   50.862   43.530
C   49.427   52.124   44.302
N   45.404   46.860   43.910
C   45.305   48.209   44.085
C   43.926   48.666   43.919
C   43.230   47.467   43.588
C   44.159   46.450   43.612
C   43.430   50.062   43.853
C   41.976   46.884   43.202
O   40.880   47.422   42.961
C   42.161   45.425   42.984
C   41.350   44.547   43.921
O   40.357   43.906   43.538
O   41.995   44.393   45.163
C   41.173   43.669   46.167
C   43.832   42.029   36.394
C   44.609   43.159   35.772
C   45.711   43.058   35.050
C   46.252   41.803   34.405
C   46.517   44.317   34.628
C   46.262   44.884   33.172
C   47.625   45.130   32.447
C   47.686   44.306   31.096
C   49.141   43.881   30.801
C   47.165   45.123   29.899
C   47.115   44.261   28.594
C   45.784   43.546   28.186
C   45.238   43.946   26.801
C   44.045   44.987   26.881
C   44.889   42.675   25.911
C   46.084   42.078   25.243
C   46.118   42.119   23.733
C   47.376   42.856   23.111
C   47.166   44.411   23.249
C   47.767   42.393   21.686
H   47.558   41.116   42.548
H   51.249   46.193   44.395
H   46.294   50.055   44.462
H   42.963   42.641   42.519
H   45.224   41.085   41.646
H   45.111   41.236   44.666
H   44.901   39.881   43.622
H   43.527   41.039   43.960
H   44.645   43.124   39.994
H   43.303   44.121   40.426
H   41.721   42.705   39.738
H   42.367   41.361   40.628
H   51.319   40.635   43.436
H   50.221   40.667   42.024
H   49.599   40.252   43.585
H   53.210   45.164   44.565
H   52.722   45.570   42.941
H   54.113   44.514   43.206
H   51.087   48.817   43.528
H   49.013   49.854   45.367
H   50.843   49.232   46.285
H   52.175   48.401   45.346
H   50.857   47.497   46.079
H   48.284   50.871   42.913
H   50.057   50.793   42.884
H   50.070   51.939   45.162
H   48.512   52.629   44.613
H   49.980   52.861   43.719
H   42.347   50.061   43.729
H   43.933   50.664   43.096
H   43.532   50.583   44.805
H   41.801   45.232   41.973
H   41.612   43.819   47.153
H   41.239   42.642   45.807
H   40.119   43.936   46.090
H   43.143   41.896   35.559
H   44.432   41.125   36.494
H   44.337   44.160   36.109
H   47.239   41.547   34.791
H   46.336   41.823   33.318
H   45.541   41.023   34.675
H   47.575   44.165   34.841
H   46.143   45.087   35.302
H   45.786   45.860   33.271
H   45.704   44.083   32.687
H   48.419   44.993   33.182
H   47.576   46.181   32.162
H   46.990   43.470   31.157
H   49.280   42.800   30.821
H   49.765   44.394   31.533
H   49.407   44.299   29.830
H   47.846   45.941   29.663
H   46.237   45.608   30.202
H   47.846   43.454   28.542
H   47.405   45.084   27.942
H   44.994   43.771   28.903
H   45.918   42.464   28.164
H   46.024   44.533   26.327
H   44.004   45.761   26.115
H   43.887   45.427   27.865
H   43.143   44.377   26.934
H   44.203   43.030   25.142
H   44.481   41.806   26.427
H   46.333   41.050   25.508
H   46.909   42.680   25.625
H   45.201   42.541   23.322
H   46.094   41.088   23.380
H   48.220   42.681   23.777
H   47.974   44.905   23.788
H   46.218   44.773   23.647
H   47.200   44.841   22.248
H   47.149   41.576   21.314
H   48.816   42.167   21.492
H   47.448   43.219   21.049
