140
24
Mg   24.768   -7.129   46.727
C   26.945   -4.617   45.465
C   22.401   -5.914   44.606
C   22.984   -10.018   47.223
C   27.540   -8.642   48.130
N   24.673   -5.388   45.317
C   25.611   -4.472   45.004
C   25.099   -3.513   43.881
C   23.516   -3.746   43.831
C   23.485   -5.086   44.675
C   22.748   -2.523   44.416
C   25.923   -3.697   42.557
C   25.692   -2.649   41.465
C   24.569   -3.030   40.501
O   23.374   -2.850   40.654
O   25.164   -3.469   39.335
N   22.878   -7.826   46.055
C   22.071   -7.172   45.197
C   20.782   -7.850   45.168
C   20.908   -9.116   45.838
C   22.283   -9.055   46.349
C   19.517   -7.389   44.445
C   19.827   -10.181   46.001
O   18.688   -10.112   45.419
C   20.022   -11.449   46.805
N   25.256   -9.085   47.396
C   24.326   -10.048   47.688
C   24.878   -11.300   48.484
C   26.459   -10.839   48.675
C   26.424   -9.433   48.037
C   24.177   -11.441   49.854
C   27.468   -11.806   47.933
C   28.391   -12.609   48.847
N   26.780   -6.609   47.007
C   27.807   -7.394   47.558
C   29.063   -6.653   47.468
C   28.764   -5.535   46.675
C   27.388   -5.584   46.362
C   30.319   -7.061   48.122
C   29.329   -4.401   46.017
O   30.463   -3.911   45.904
C   28.204   -3.842   45.067
C   28.085   -2.438   45.110
O   28.044   -1.677   44.181
O   28.075   -2.063   46.375
C   27.837   -0.592   46.567
C   24.305   -3.779   38.178
C   24.246   -5.278   38.066
C   24.783   -6.088   37.067
C   25.772   -5.476   36.019
C   24.333   -7.539   36.775
C   23.041   -7.597   36.079
C   23.013   -8.766   35.045
C   22.649   -8.251   33.613
C   22.249   -9.435   32.825
C   23.865   -7.550   33.033
C   23.609   -6.162   32.553
C   24.936   -5.474   32.112
C   24.999   -5.020   30.636
C   25.920   -3.811   30.546
C   25.421   -6.238   29.732
C   24.295   -6.546   28.824
C   24.646   -6.510   27.279
C   24.381   -5.076   26.666
C   22.889   -4.846   26.433
C   25.317   -4.663   25.481
H   21.618   -5.551   43.937
H   22.342   -10.730   47.745
H   28.224   -9.124   48.831
H   25.355   -2.576   44.375
H   23.113   -4.018   42.855
H   23.375   -1.655   44.624
H   22.132   -2.721   45.292
H   21.965   -2.204   43.728
H   25.672   -4.677   42.151
H   27.007   -3.811   42.563
H   26.572   -2.490   40.842
H   25.538   -1.669   41.916
H   18.619   -7.528   45.048
H   19.361   -8.031   43.578
H   19.700   -6.349   44.175
H   20.258   -11.070   47.799
H   20.913   -11.964   46.447
H   19.078   -11.993   46.765
H   24.749   -12.261   47.986
H   26.624   -10.586   49.722
H   23.376   -12.150   49.644
H   23.688   -10.481   50.022
H   24.792   -11.732   50.705
H   27.986   -11.222   47.172
H   26.818   -12.515   47.421
H   28.290   -13.693   48.797
H   28.157   -12.268   49.856
H   29.446   -12.409   48.657
H   30.914   -6.194   48.410
H   30.828   -7.760   47.458
H   30.117   -7.692   48.987
H   28.412   -4.202   44.059
H   27.090   -0.263   45.845
H   28.785   -0.081   46.400
H   27.405   -0.393   47.547
H   24.847   -3.323   37.349
H   23.259   -3.478   38.122
H   23.369   -5.719   38.539
H   25.105   -4.970   35.322
H   26.403   -6.269   35.617
H   26.425   -4.714   36.444
H   24.198   -7.979   37.763
H   25.063   -8.128   36.220
H   23.003   -6.674   35.499
H   22.144   -7.620   36.698
H   22.257   -9.477   35.377
H   23.937   -9.344   35.076
H   21.885   -7.517   33.867
H   22.876   -10.308   33.003
H   22.181   -9.176   31.769
H   21.241   -9.790   33.041
H   24.187   -8.044   32.116
H   24.636   -7.402   33.789
H   23.342   -5.576   33.432
H   22.817   -5.957   31.832
H   25.806   -6.099   32.313
H   25.148   -4.587   32.708
H   24.030   -4.620   30.338
H   26.609   -3.630   31.371
H   25.260   -2.957   30.397
H   26.580   -3.861   29.680
H   25.545   -7.183   30.262
H   26.389   -6.080   29.257
H   23.437   -5.887   28.959
H   23.958   -7.559   29.042
H   24.158   -7.346   26.779
H   25.714   -6.671   27.135
H   24.509   -4.314   27.435
H   22.365   -4.401   27.280
H   22.475   -5.850   26.349
H   22.625   -4.333   25.508
H   24.665   -4.135   24.786
H   25.753   -5.538   24.999
H   26.043   -3.989   25.938
