140
37
Mg   6.417   55.560   42.130
C   5.905   52.138   42.061
C   9.332   55.156   40.328
C   6.315   58.855   41.548
C   3.133   55.838   43.656
N   7.387   53.852   41.267
C   6.985   52.554   41.259
C   7.919   51.671   40.357
C   9.215   52.585   40.259
C   8.595   53.966   40.587
C   10.247   52.331   41.372
C   7.162   51.532   38.983
C   7.621   50.205   38.217
C   6.835   49.859   36.989
O   5.700   49.387   36.983
O   7.446   50.326   35.847
N   7.636   56.861   41.077
C   8.869   56.501   40.495
C   9.463   57.667   39.955
C   8.580   58.798   40.225
C   7.403   58.244   40.934
C   10.783   57.682   39.191
C   8.777   60.263   39.936
O   9.760   60.661   39.368
C   7.745   61.314   40.009
N   4.775   57.115   42.298
C   5.104   58.397   42.135
C   3.971   59.337   42.574
C   2.980   58.344   43.139
C   3.656   56.967   42.974
C   4.377   60.440   43.701
C   1.568   58.267   42.465
C   0.420   57.896   43.388
N   4.909   54.248   42.990
C   3.652   54.475   43.593
C   3.109   53.274   44.142
C   3.884   52.309   43.476
C   4.957   52.992   42.796
C   1.799   53.148   44.842
C   4.065   50.919   43.218
O   3.424   49.916   43.570
C   5.275   50.757   42.288
C   4.918   49.976   41.040
O   3.834   50.092   40.392
O   5.795   48.951   40.935
C   5.308   47.798   40.230
C   6.702   50.092   34.582
C   6.966   51.267   33.684
C   6.370   51.560   32.576
C   5.122   50.912   31.888
C   6.883   52.842   31.880
C   6.461   54.165   32.533
C   5.500   54.965   31.660
C   6.368   55.950   30.742
C   5.916   57.419   31.067
C   6.261   55.548   29.215
C   7.715   55.320   28.709
C   8.268   56.634   27.961
C   9.244   57.514   28.730
C   8.931   59.031   28.609
C   10.631   57.161   28.218
C   11.415   56.235   29.248
C   12.729   57.028   29.643
C   13.996   56.591   28.934
C   15.203   56.558   29.941
C   14.271   57.454   27.613
H   10.296   54.885   39.891
H   6.478   59.924   41.700
H   2.148   55.849   44.128
H   8.109   50.721   40.858
H   9.594   52.549   39.237
H   11.136   51.916   40.897
H   9.943   51.666   42.181
H   10.614   53.271   41.782
H   7.243   52.503   38.495
H   6.125   51.423   39.299
H   7.836   49.355   38.866
H   8.580   50.424   37.747
H   10.646   57.760   38.112
H   11.468   56.893   39.502
H   11.343   58.573   39.475
H   6.763   60.854   39.902
H   7.842   62.017   39.181
H   7.829   61.831   40.965
H   3.480   59.793   41.714
H   2.755   58.383   44.205
H   5.363   60.147   44.060
H   3.638   60.349   44.498
H   4.418   61.459   43.317
H   1.560   57.634   41.578
H   1.361   59.276   42.106
H   -0.251   58.731   43.587
H   0.795   57.550   44.351
H   -0.122   57.123   42.843
H   1.290   54.086   45.064
H   1.816   52.595   45.781
H   1.069   52.605   44.242
H   5.960   50.144   42.874
H   5.817   47.731   39.268
H   4.230   47.872   40.090
H   5.547   46.965   40.891
H   5.626   49.958   34.685
H   6.962   49.173   34.056
H   7.607   52.074   34.038
H   4.362   51.690   31.955
H   4.861   50.006   32.436
H   5.135   50.737   30.813
H   6.528   52.787   30.851
H   7.970   52.924   31.910
H   7.356   54.761   32.707
H   6.011   54.068   33.520
H   4.986   55.592   32.388
H   4.714   54.439   31.118
H   7.410   56.000   31.057
H   4.847   57.494   30.869
H   6.508   58.004   30.363
H   6.156   57.602   32.114
H   5.786   56.396   28.721
H   5.702   54.614   29.160
H   7.751   54.567   27.922
H   8.509   55.000   29.383
H   7.427   57.216   27.584
H   8.746   56.226   27.071
H   9.187   57.264   29.789
H   7.911   59.220   28.276
H   9.562   59.503   27.856
H   8.948   59.524   29.581
H   11.175   58.103   28.145
H   10.665   56.738   27.214
H   11.696   55.324   28.722
H   10.772   56.002   30.097
H   12.783   56.947   30.729
H   12.686   58.108   29.499
H   13.863   55.581   28.544
H   15.510   55.519   30.060
H   14.839   56.791   30.941
H   15.989   57.292   29.762
H   15.244   57.944   27.575
H   13.552   58.274   27.620
H   14.087   56.910   26.686
