140
4
Mg   7.729   57.116   41.167
C   6.553   53.770   40.990
C   10.909   56.032   40.471
C   8.636   60.348   40.846
C   4.307   58.047   41.850
N   8.560   55.105   40.728
C   7.921   53.900   40.666
C   8.864   52.818   40.218
C   10.260   53.477   40.432
C   9.936   54.987   40.582
C   11.106   52.901   41.613
C   8.558   52.175   38.813
C   9.752   51.649   37.999
C   9.322   50.910   36.714
O   8.477   50.008   36.720
O   9.880   51.447   35.556
N   9.485   58.012   40.658
C   10.675   57.378   40.460
C   11.704   58.332   40.177
C   11.096   59.654   40.334
C   9.694   59.440   40.607
C   12.955   57.935   39.475
C   11.863   60.956   40.120
O   13.094   60.949   39.928
C   11.265   62.399   40.229
N   6.570   58.950   41.062
C   7.215   60.176   41.061
C   6.172   61.241   41.314
C   4.764   60.582   41.441
C   5.211   59.089   41.498
C   6.550   62.191   42.449
C   3.792   60.921   40.288
C   2.326   60.837   40.658
N   5.827   56.202   41.439
C   4.500   56.705   41.696
C   3.579   55.606   41.962
C   4.324   54.459   41.664
C   5.693   54.882   41.373
C   2.146   55.879   42.444
C   4.260   53.020   41.685
O   3.353   52.272   42.048
C   5.635   52.539   41.048
C   5.202   52.073   39.717
O   4.758   52.664   38.765
O   5.435   50.750   39.709
C   4.944   49.988   38.569
C   9.632   50.654   34.365
C   9.710   51.619   33.150
C   8.818   52.340   32.407
C   7.390   52.381   32.758
C   9.283   53.257   31.215
C   9.050   54.787   31.388
C   9.687   55.659   30.273
C   10.854   56.595   30.790
C   10.221   57.716   31.623
C   11.655   57.189   29.680
C   12.864   56.296   29.212
C   14.205   57.137   29.288
C   14.329   58.327   28.275
C   14.935   57.888   26.917
C   14.805   59.723   28.887
C   13.803   60.837   28.942
C   13.418   61.163   30.452
C   14.278   62.264   31.139
C   15.262   61.694   32.182
C   13.333   63.399   31.777
H   11.915   55.640   40.309
H   8.972   61.375   41.004
H   3.313   58.341   42.192
H   8.627   52.017   40.918
H   10.887   53.376   39.546
H   10.932   53.568   42.457
H   12.158   52.930   41.327
H   10.587   51.978   41.872
H   7.961   52.815   38.163
H   7.952   51.276   38.929
H   10.387   50.987   38.589
H   10.310   52.532   37.687
H   13.370   58.830   39.013
H   12.814   57.098   38.791
H   13.613   57.667   40.302
H   10.975   62.575   41.265
H   10.402   62.329   39.566
H   11.840   63.214   39.790
H   6.184   61.851   40.411
H   4.242   60.809   42.371
H   6.301   63.140   41.974
H   7.621   62.222   42.650
H   5.896   62.094   43.315
H   4.085   60.261   39.471
H   3.970   61.900   39.845
H   1.911   61.843   40.727
H   2.117   60.289   41.577
H   1.786   60.261   39.907
H   1.621   56.084   41.511
H   2.238   56.684   43.174
H   1.811   54.953   42.912
H   6.017   51.827   41.780
H   4.385   49.176   39.036
H   5.820   49.657   38.012
H   4.265   50.525   37.908
H   8.768   49.992   34.317
H   10.466   49.954   34.314
H   10.712   51.570   32.725
H   7.279   52.606   33.819
H   6.865   51.447   32.555
H   6.901   53.096   32.097
H   8.801   52.829   30.336
H   10.342   53.195   30.968
H   9.408   55.156   32.349
H   7.985   54.971   31.531
H   8.822   56.215   29.911
H   9.950   55.154   29.344
H   11.481   56.006   31.460
H   9.153   57.501   31.659
H   10.318   58.738   31.256
H   10.622   57.663   32.635
H   11.947   58.213   29.912
H   11.048   57.294   28.781
H   12.774   55.886   28.206
H   13.066   55.444   29.862
H   15.072   56.492   29.148
H   14.394   57.595   30.259
H   13.279   58.575   28.123
H   14.095   57.605   26.283
H   15.675   57.094   26.809
H   15.406   58.714   26.385
H   15.621   60.165   28.315
H   15.258   59.514   29.856
H   12.876   60.717   28.381
H   14.211   61.770   28.553
H   13.552   60.225   30.991
H   12.354   61.365   30.331
H   15.016   62.640   30.431
H   15.271   62.377   33.031
H   16.263   61.766   31.756
H   14.894   60.693   32.409
H   13.373   63.503   32.861
H   12.290   63.294   31.478
H   13.721   64.337   31.378
