140
26
Mg   45.513   35.252   27.648
C   43.588   33.453   29.978
C   45.916   37.765   29.968
C   46.818   37.264   25.154
C   44.855   32.832   25.209
N   44.973   35.437   29.780
C   44.226   34.555   30.554
C   44.378   35.059   32.092
C   44.722   36.512   31.887
C   45.181   36.645   30.461
C   43.453   37.388   32.147
C   45.578   34.282   32.821
C   45.354   34.008   34.379
C   44.316   34.858   35.131
O   43.199   34.533   35.472
O   44.799   36.201   35.318
N   46.223   37.233   27.541
C   46.306   38.117   28.591
C   46.940   39.348   28.208
C   47.213   39.215   26.792
C   46.729   37.849   26.404
C   47.348   40.486   29.127
C   47.943   40.115   25.807
O   47.942   39.977   24.563
C   48.608   41.317   26.463
N   45.639   35.149   25.504
C   46.325   36.002   24.730
C   46.280   35.567   23.232
C   45.818   34.143   23.321
C   45.491   33.984   24.745
C   45.471   36.407   22.235
C   46.773   32.971   22.710
C   46.559   32.851   21.137
N   44.530   33.478   27.562
C   44.362   32.579   26.524
C   43.621   31.421   26.992
C   43.260   31.736   28.322
C   43.820   32.992   28.618
C   43.317   30.166   26.192
C   42.648   31.186   29.412
O   42.042   30.115   29.464
C   42.581   32.373   30.538
C   43.007   31.697   31.804
O   44.200   31.318   31.973
O   42.004   31.740   32.781
C   42.381   31.213   34.119
C   44.238   36.928   36.445
C   45.283   37.860   36.853
C   45.620   38.279   38.058
C   44.912   37.989   39.322
C   47.029   38.911   38.108
C   47.049   40.260   38.902
C   47.856   41.475   38.344
C   47.042   42.827   38.214
C   47.872   43.924   37.497
C   46.729   43.371   39.639
C   45.810   44.539   39.738
C   46.442   45.881   40.133
C   46.092   46.944   39.071
C   47.267   47.945   38.886
C   44.797   47.653   39.483
C   43.519   46.960   38.906
C   42.413   46.611   39.952
C   41.014   47.041   39.443
C   40.076   47.458   40.657
C   40.321   45.907   38.624
H   46.146   38.567   30.674
H   47.009   37.814   24.231
H   44.695   32.029   24.487
H   43.435   34.817   32.583
H   45.440   37.032   32.522
H   43.401   37.598   33.215
H   42.499   36.994   31.796
H   43.663   38.313   31.610
H   46.531   34.780   32.642
H   45.656   33.375   32.221
H   46.286   34.161   34.924
H   45.175   32.937   34.475
H   46.972   41.437   28.749
H   48.403   40.484   29.403
H   46.751   40.267   30.013
H   49.100   41.042   27.396
H   47.850   42.100   26.449
H   49.393   41.533   25.738
H   47.293   35.524   22.832
H   44.845   33.993   22.854
H   44.893   37.141   22.796
H   44.797   35.754   21.680
H   46.153   36.896   21.539
H   46.471   32.017   23.140
H   47.847   33.066   22.873
H   46.040   31.909   20.961
H   47.527   32.808   20.637
H   45.885   33.573   20.676
H   42.431   29.662   26.579
H   44.176   29.499   26.125
H   43.175   30.447   25.149
H   41.559   32.726   30.676
H   41.760   31.779   34.813
H   43.435   31.239   34.395
H   42.150   30.147   34.128
H   43.893   36.347   37.301
H   43.335   37.484   36.195
H   45.804   38.157   35.943
H   45.553   38.093   40.198
H   44.622   36.946   39.191
H   44.014   38.594   39.441
H   47.482   39.006   37.121
H   47.623   38.141   38.601
H   47.360   40.044   39.924
H   46.036   40.647   39.012
H   48.313   41.158   37.406
H   48.698   41.657   39.012
H   46.020   42.671   37.869
H   48.943   43.880   37.696
H   47.646   44.946   37.804
H   47.797   43.803   36.416
H   47.698   43.598   40.083
H   46.293   42.643   40.323
H   45.121   44.415   40.574
H   45.264   44.515   38.795
H   47.524   45.792   40.036
H   46.229   46.176   41.161
H   45.988   46.527   38.070
H   47.993   47.626   38.137
H   47.792   48.128   39.823
H   46.848   48.889   38.537
H   44.783   48.680   39.117
H   44.711   47.678   40.569
H   43.680   45.998   38.420
H   43.130   47.676   38.182
H   42.689   47.077   40.898
H   42.590   45.549   40.122
H   41.049   47.854   38.718
H   39.889   48.532   40.687
H   40.519   47.173   41.611
H   39.138   46.952   40.424
H   40.959   45.681   37.770
H   39.336   46.284   38.347
H   40.208   45.107   39.356
