140
13
Mg   3.307   -0.378   43.982
C   6.257   1.570   44.144
C   1.714   2.333   42.577
C   0.618   -2.347   43.686
C   5.105   -3.094   45.148
N   4.060   1.623   43.214
C   5.226   2.230   43.486
C   5.275   3.695   42.995
C   3.729   4.014   42.947
C   3.067   2.592   42.911
C   3.323   4.952   44.114
C   6.035   3.979   41.643
C   6.517   2.644   40.896
C   7.029   2.946   39.497
O   8.063   3.488   39.199
O   6.265   2.331   38.541
N   1.422   -0.018   43.199
C   0.913   1.127   42.626
C   -0.574   0.930   42.335
C   -0.909   -0.356   42.740
C   0.366   -1.003   43.213
C   -1.441   2.005   41.722
C   -2.310   -0.900   42.733
O   -3.233   -0.143   42.413
C   -2.822   -2.294   43.189
N   2.970   -2.492   44.103
C   1.722   -3.017   44.132
C   1.765   -4.535   44.414
C   3.240   -4.822   44.823
C   3.831   -3.420   44.653
C   0.604   -5.097   45.262
C   4.054   -5.867   43.944
C   4.699   -6.910   44.778
N   5.323   -0.807   44.472
C   5.914   -1.881   44.989
C   7.295   -1.669   45.423
C   7.452   -0.299   45.133
C   6.245   0.192   44.518
C   8.158   -2.679   46.169
C   8.367   0.855   45.193
O   9.489   0.874   45.670
C   7.614   2.095   44.547
C   7.580   3.266   45.481
O   8.454   4.108   45.535
O   6.538   3.191   46.343
C   6.572   4.083   47.499
C   6.783   2.462   37.077
C   5.596   2.133   36.257
C   5.451   1.369   35.120
C   6.571   0.883   34.248
C   3.948   1.254   34.629
C   3.388   2.466   33.779
C   2.851   1.990   32.371
C   1.327   1.820   32.499
C   0.957   0.461   31.839
C   0.537   3.013   31.914
C   0.805   3.252   30.420
C   -0.439   2.810   29.533
C   -1.145   4.015   28.919
C   -1.983   4.728   29.986
C   -2.064   3.402   27.840
C   -1.357   3.200   26.495
C   -1.897   4.031   25.297
C   -2.340   3.164   24.040
C   -1.995   3.772   22.717
C   -3.860   2.929   24.077
H   1.052   3.132   42.237
H   -0.230   -3.015   43.523
H   5.597   -4.003   45.500
H   5.806   4.188   43.809
H   3.531   4.566   42.028
H   3.128   4.467   45.070
H   2.562   5.655   43.775
H   4.183   5.578   44.349
H   6.992   4.485   41.769
H   5.410   4.604   41.006
H   5.790   1.838   40.798
H   7.364   2.270   41.471
H   -2.033   2.478   42.506
H   -2.020   1.789   40.824
H   -0.734   2.753   41.364
H   -2.697   -2.347   44.271
H   -2.331   -3.132   42.693
H   -3.870   -2.395   42.907
H   1.560   -5.026   43.463
H   3.284   -5.190   45.848
H   0.984   -5.992   45.753
H   -0.248   -5.292   44.610
H   0.388   -4.382   46.056
H   4.811   -5.369   43.338
H   3.496   -6.372   43.156
H   3.953   -7.213   45.512
H   5.603   -6.507   45.235
H   4.954   -7.868   44.325
H   7.909   -2.768   47.227
H   9.112   -2.152   46.170
H   8.327   -3.661   45.726
H   8.269   2.445   43.749
H   5.972   4.983   47.372
H   7.570   4.418   47.781
H   6.284   3.458   48.344
H   7.581   1.726   36.987
H   7.067   3.469   36.772
H   4.611   2.140   36.724
H   6.276   0.857   33.199
H   6.865   -0.151   34.426
H   7.423   1.549   34.383
H   3.322   1.076   35.504
H   3.965   0.346   34.027
H   4.003   3.350   33.615
H   2.550   2.805   34.388
H   3.394   1.119   32.004
H   3.254   2.760   31.714
H   1.001   1.667   33.528
H   0.044   0.076   32.294
H   1.735   -0.267   32.070
H   0.874   0.583   30.759
H   0.672   3.937   32.478
H   -0.524   2.877   32.124
H   1.729   2.812   30.044
H   0.862   4.333   30.292
H   -1.179   2.207   30.060
H   -0.044   2.163   28.749
H   -0.380   4.729   28.614
H   -1.651   5.767   29.995
H   -1.925   4.415   31.028
H   -3.023   4.621   29.679
H   -2.934   4.051   27.746
H   -2.517   2.465   28.165
H   -1.347   2.126   26.314
H   -0.343   3.564   26.662
H   -1.193   4.845   25.121
H   -2.767   4.571   25.671
H   -1.884   2.177   24.129
H   -2.750   3.616   21.946
H   -1.122   3.268   22.301
H   -1.744   4.828   22.817
H   -4.333   2.433   23.230
H   -4.446   3.843   24.168
H   -4.108   2.243   24.888
