140
23
Mg   34.295   49.366   25.461
C   34.837   47.760   28.533
C   32.564   51.868   27.195
C   33.763   50.931   22.484
C   35.867   46.626   23.846
N   33.727   49.731   27.587
C   34.112   48.959   28.694
C   33.723   49.674   29.983
C   32.794   50.874   29.531
C   33.047   50.826   28.003
C   31.333   50.767   29.940
C   34.930   50.152   30.853
C   34.571   51.197   31.901
C   33.290   50.998   32.714
O   32.718   49.962   32.814
O   32.845   52.177   33.234
N   33.295   51.150   24.892
C   32.805   52.093   25.820
C   32.242   53.213   25.027
C   32.474   52.925   23.665
C   33.246   51.652   23.629
C   31.541   54.326   25.656
C   31.996   53.771   22.505
O   32.366   53.510   21.394
C   31.155   54.972   22.658
N   34.693   48.824   23.425
C   34.404   49.694   22.388
C   34.897   49.044   21.010
C   35.693   47.745   21.511
C   35.368   47.666   22.975
C   33.783   48.750   19.872
C   37.199   47.678   21.118
C   38.201   48.564   21.929
N   35.188   47.545   26.006
C   35.752   46.518   25.195
C   36.183   45.487   26.018
C   35.836   45.912   27.366
C   35.241   47.180   27.296
C   36.767   44.201   25.664
C   35.771   45.470   28.738
O   36.131   44.399   29.256
C   35.262   46.724   29.516
C   34.186   46.426   30.425
O   32.953   46.482   30.203
O   34.653   45.812   31.567
C   33.714   45.423   32.665
C   31.495   52.167   33.838
C   31.001   53.547   34.090
C   29.849   53.864   34.576
C   28.666   52.981   34.988
C   29.583   55.333   34.859
C   30.448   56.117   35.903
C   31.538   57.004   35.318
C   31.552   58.403   35.953
C   32.954   58.826   36.271
C   30.893   59.392   34.910
C   29.600   60.185   35.304
C   29.294   60.336   36.805
C   28.742   61.792   37.181
C   29.829   62.658   37.841
C   27.570   61.552   38.087
C   26.323   62.346   37.741
C   26.304   63.662   38.604
C   25.836   64.794   37.679
C   26.331   66.139   38.187
C   24.322   64.910   37.359
H   32.046   52.666   27.730
H   33.621   51.360   21.490
H   36.398   45.814   23.345
H   33.261   48.859   30.541
H   33.109   51.832   29.945
H   31.094   49.912   30.572
H   30.665   50.817   29.080
H   31.048   51.625   30.549
H   35.795   50.480   30.275
H   35.235   49.249   31.382
H   34.598   52.209   31.499
H   35.416   51.112   32.584
H   32.021   55.278   25.428
H   31.461   54.308   26.743
H   30.489   54.284   25.371
H   31.683   55.761   23.193
H   30.262   54.823   23.265
H   31.037   55.398   21.662
H   35.532   49.736   20.456
H   35.201   46.865   21.097
H   32.883   48.946   20.455
H   33.816   47.730   19.491
H   33.907   49.510   19.101
H   37.396   48.021   20.103
H   37.520   46.636   21.108
H   38.911   47.887   22.404
H   37.540   49.090   22.618
H   38.747   49.348   21.405
H   37.428   43.797   26.430
H   37.339   44.236   24.736
H   35.955   43.491   25.506
H   36.153   46.904   30.118
H   33.604   44.342   32.741
H   32.658   45.607   32.468
H   34.099   45.883   33.576
H   31.618   51.668   34.799
H   30.823   51.557   33.233
H   31.688   54.352   33.830
H   28.693   51.937   34.676
H   27.688   53.288   34.618
H   28.513   52.971   36.067
H   28.519   55.481   35.043
H   29.856   55.750   33.889
H   31.071   55.454   36.503
H   29.723   56.663   36.507
H   31.474   56.980   34.230
H   32.468   56.457   35.470
H   30.971   58.499   36.871
H   33.483   59.205   35.396
H   33.496   57.931   36.574
H   32.988   59.576   37.061
H   30.529   58.788   34.079
H   31.637   60.092   34.530
H   28.838   59.597   34.793
H   29.795   61.103   34.749
H   30.291   60.299   37.243
H   28.891   59.405   37.204
H   28.526   62.222   36.203
H   30.801   62.193   37.679
H   29.719   62.822   38.913
H   30.009   63.627   37.374
H   27.929   61.745   39.098
H   27.277   60.503   38.100
H   25.320   61.921   37.783
H   26.362   62.484   36.660
H   27.243   63.891   39.109
H   25.649   63.554   39.469
H   26.437   64.722   36.773
H   27.341   66.065   38.591
H   25.628   66.572   38.898
H   26.275   66.897   37.407
H   24.094   65.974   37.410
H   23.884   64.341   38.179
H   24.146   64.697   36.304
