140
31
Mg   25.634   51.145   26.529
C   23.311   52.169   28.920
C   27.791   50.300   29.163
C   27.904   50.281   24.243
C   23.693   52.677   24.051
N   25.651   51.356   28.771
C   24.508   51.681   29.532
C   24.774   51.519   31.060
C   26.335   51.111   31.117
C   26.663   50.881   29.607
C   27.189   52.293   31.843
C   23.897   50.299   31.663
C   23.330   50.490   32.998
C   24.182   51.444   33.881
O   24.109   52.621   34.059
O   25.160   50.727   34.515
N   27.458   50.247   26.649
C   28.173   49.922   27.780
C   29.306   49.165   27.387
C   29.311   49.131   25.949
C   28.215   49.914   25.550
C   30.299   48.544   28.398
C   30.392   48.467   25.078
O   30.361   48.596   23.836
C   31.444   47.651   25.737
N   25.818   51.554   24.505
C   26.813   51.028   23.749
C   26.674   51.269   22.234
C   25.267   52.004   22.208
C   24.906   52.142   23.701
C   27.722   52.164   21.529
C   24.206   51.089   21.495
C   23.905   49.671   22.123
N   23.794   52.230   26.423
C   23.117   52.789   25.358
C   21.918   53.362   25.799
C   21.940   53.132   27.183
C   23.101   52.477   27.553
C   20.883   54.126   24.966
C   21.246   53.434   28.358
O   20.177   53.992   28.506
C   22.053   52.791   29.588
C   22.401   53.854   30.611
O   23.397   54.634   30.471
O   21.559   53.727   31.679
C   21.716   54.684   32.750
C   25.934   51.349   35.610
C   25.474   50.794   36.934
C   25.861   51.171   38.227
C   26.881   52.196   38.568
C   25.221   50.481   39.427
C   26.048   49.439   40.139
C   25.484   48.061   40.050
C   26.262   47.131   41.092
C   26.829   45.958   40.309
C   25.277   46.679   42.296
C   26.144   45.945   43.423
C   25.554   46.105   44.857
C   26.262   47.091   45.791
C   26.383   46.623   47.213
C   25.597   48.519   45.774
C   26.551   49.804   45.741
C   26.477   50.537   44.412
C   26.177   52.045   44.560
C   25.681   52.687   43.260
C   27.423   52.816   45.047
H   28.381   49.838   29.957
H   28.562   50.170   23.379
H   22.899   53.078   23.417
H   24.610   52.491   31.526
H   26.458   50.204   31.709
H   26.667   52.679   32.719
H   27.471   52.988   31.052
H   28.103   51.784   32.148
H   24.411   49.344   31.557
H   23.057   50.222   30.973
H   23.402   49.595   33.616
H   22.355   50.978   32.990
H   30.572   47.495   28.278
H   29.875   48.656   29.396
H   31.245   49.084   28.444
H   32.197   48.158   26.341
H   31.904   47.002   24.992
H   30.926   46.824   26.221
H   26.555   50.258   21.843
H   25.362   53.000   21.775
H   27.353   52.705   20.658
H   28.279   51.317   21.127
H   28.372   52.797   22.132
H   24.633   50.774   20.543
H   23.199   51.473   21.332
H   24.432   49.533   23.067
H   24.295   48.791   21.611
H   22.845   49.603   22.368
H   19.872   53.970   25.343
H   20.905   53.781   23.933
H   21.283   55.140   24.990
H   21.416   52.073   30.105
H   22.128   54.308   33.687
H   20.724   55.031   33.038
H   22.313   55.571   32.539
H   25.807   52.422   35.753
H   26.961   51.081   35.363
H   24.827   49.947   36.704
H   26.507   53.148   38.946
H   27.469   52.540   37.718
H   27.602   51.943   39.345
H   24.351   49.991   38.989
H   24.890   51.236   40.140
H   26.140   49.813   41.158
H   27.010   49.438   39.627
H   25.524   47.690   39.026
H   24.417   47.995   40.265
H   27.135   47.634   41.506
H   27.401   45.273   40.936
H   27.430   46.372   39.499
H   26.051   45.367   39.825
H   24.601   45.915   41.911
H   24.790   47.595   42.631
H   27.165   46.321   43.353
H   26.051   44.896   43.141
H   25.654   45.068   45.177
H   24.474   46.252   44.887
H   27.296   47.296   45.516
H   25.565   47.129   47.725
H   27.316   46.856   47.727
H   26.293   45.538   47.259
H   24.968   48.706   46.645
H   24.835   48.630   45.002
H   27.581   49.566   46.007
H   26.327   50.503   46.547
H   25.838   50.024   43.693
H   27.461   50.495   43.945
H   25.397   52.213   45.303
H   26.359   53.488   42.964
H   24.663   53.051   43.402
H   25.696   51.858   42.553
H   27.115   53.562   45.780
H   28.049   53.297   44.295
H   28.069   52.115   45.575
