140
25
Mg   -5.163   25.202   26.714
C   -3.514   27.072   29.229
C   -6.180   23.087   29.337
C   -6.464   23.177   24.492
C   -3.573   27.071   24.282
N   -4.851   25.149   29.014
C   -4.231   26.020   29.841
C   -4.502   25.738   31.314
C   -5.022   24.237   31.223
C   -5.451   24.183   29.819
C   -4.036   23.092   31.592
C   -5.553   26.779   31.892
C   -5.160   27.363   33.271
C   -6.206   27.083   34.375
O   -7.170   27.760   34.715
O   -5.998   25.894   35.031
N   -6.137   23.377   26.900
C   -6.558   22.709   27.977
C   -7.338   21.590   27.653
C   -7.439   21.616   26.258
C   -6.666   22.726   25.807
C   -7.883   20.650   28.649
C   -8.138   20.511   25.364
O   -8.086   20.477   24.146
C   -9.064   19.568   26.081
N   -5.085   25.124   24.700
C   -5.814   24.262   23.968
C   -5.819   24.674   22.417
C   -4.942   25.945   22.523
C   -4.399   26.043   23.893
C   -5.372   23.562   21.445
C   -5.621   27.225   22.033
C   -5.116   27.863   20.699
N   -3.967   26.778   26.698
C   -3.323   27.369   25.669
C   -2.447   28.441   26.146
C   -2.582   28.397   27.535
C   -3.431   27.347   27.834
C   -1.467   29.185   25.263
C   -2.079   28.950   28.768
O   -1.304   29.871   29.042
C   -2.766   28.055   29.958
C   -1.755   27.430   30.761
O   -0.881   26.657   30.337
O   -1.835   27.974   32.016
C   -1.189   27.320   33.135
C   -6.762   25.633   36.297
C   -7.469   24.261   36.353
C   -7.664   23.304   37.283
C   -6.972   23.389   38.659
C   -8.589   22.168   37.027
C   -10.143   22.469   36.940
C   -11.034   21.558   37.757
C   -11.927   20.678   36.874
C   -13.170   21.355   36.188
C   -12.367   19.402   37.592
C   -11.952   18.065   36.984
C   -11.479   16.961   37.954
C   -9.894   16.842   38.099
C   -9.352   17.909   39.067
C   -9.462   15.427   38.548
C   -8.031   15.034   38.018
C   -6.933   15.065   39.092
C   -5.689   14.189   38.810
C   -5.152   13.482   40.105
C   -4.476   15.037   38.117
H   -6.733   22.629   30.160
H   -6.951   22.539   23.752
H   -3.038   27.694   23.563
H   -3.540   25.716   31.827
H   -5.864   24.106   31.902
H   -4.396   22.559   32.471
H   -3.097   23.582   31.851
H   -3.865   22.427   30.745
H   -6.528   26.294   31.953
H   -5.675   27.622   31.212
H   -4.887   28.416   33.198
H   -4.330   26.759   33.639
H   -7.672   19.593   28.487
H   -8.941   20.895   28.743
H   -7.460   20.804   29.642
H   -9.612   19.140   25.242
H   -9.799   20.075   26.707
H   -8.601   18.758   26.645
H   -6.833   25.012   22.205
H   -4.032   25.764   21.951
H   -6.245   23.324   20.838
H   -4.863   22.751   21.966
H   -4.644   23.949   20.732
H   -5.473   28.008   22.777
H   -6.702   27.137   21.923
H   -4.498   28.738   20.901
H   -5.976   28.297   20.189
H   -4.653   27.096   20.077
H   -0.686   28.459   25.037
H   -0.918   29.964   25.791
H   -1.978   29.527   24.363
H   -3.559   28.540   30.527
H   -0.905   26.274   33.022
H   -1.970   27.364   33.894
H   -0.381   27.974   33.461
H   -7.471   26.425   36.536
H   -5.966   25.502   37.030
H   -8.120   24.101   35.494
H   -6.261   22.568   38.757
H   -7.838   23.420   39.320
H   -6.537   24.361   38.892
H   -8.521   21.293   37.673
H   -8.140   21.853   36.085
H   -10.518   22.507   35.917
H   -10.248   23.488   37.313
H   -11.718   22.259   38.235
H   -10.543   21.080   38.605
H   -11.301   20.357   36.041
H   -14.120   20.884   36.443
H   -13.022   21.363   35.108
H   -13.166   22.405   36.481
H   -13.446   19.456   37.734
H   -11.919   19.449   38.585
H   -11.209   18.228   36.204
H   -12.888   17.711   36.550
H   -12.148   16.122   37.764
H   -11.735   17.226   38.979
H   -9.436   16.992   37.122
H   -8.756   18.688   38.593
H   -8.733   17.522   39.877
H   -10.161   18.481   39.522
H   -10.091   14.712   38.017
H   -9.576   15.287   39.623
H   -7.792   15.603   37.120
H   -8.097   13.983   37.736
H   -7.341   14.786   40.063
H   -6.678   16.121   39.181
H   -6.014   13.487   38.041
H   -5.608   14.031   40.928
H   -4.079   13.550   40.285
H   -5.415   12.427   40.031
H   -4.684   15.305   37.081
H   -3.564   14.441   38.162
H   -4.303   15.983   38.631
