140
7
Mg   24.896   -6.357   45.682
C   27.447   -4.313   44.366
C   22.710   -4.757   43.580
C   22.785   -8.998   46.123
C   27.361   -8.069   47.451
N   25.142   -4.852   44.093
C   26.237   -4.136   43.737
C   26.029   -3.177   42.624
C   24.470   -3.116   42.627
C   24.067   -4.363   43.487
C   23.934   -1.811   43.178
C   26.594   -3.552   41.239
C   26.777   -2.489   40.192
C   25.933   -2.621   38.947
O   25.023   -1.922   38.622
O   26.479   -3.569   38.135
N   22.980   -6.761   44.961
C   22.201   -5.888   44.291
C   20.875   -6.460   44.259
C   20.941   -7.722   44.830
C   22.234   -7.866   45.392
C   19.706   -5.804   43.532
C   19.737   -8.641   44.964
O   18.597   -8.350   44.715
C   19.925   -10.050   45.512
N   25.145   -8.344   46.491
C   24.074   -9.126   46.650
C   24.364   -10.340   47.599
C   25.834   -10.029   48.036
C   26.167   -8.701   47.323
C   23.280   -10.641   48.753
C   26.947   -11.163   47.736
C   27.997   -11.499   48.810
N   27.047   -6.184   46.015
C   27.850   -6.939   46.766
C   29.178   -6.337   46.777
C   29.055   -5.321   45.812
C   27.737   -5.259   45.403
C   30.402   -6.889   47.566
C   29.814   -4.324   45.048
O   30.988   -4.078   45.004
C   28.778   -3.642   44.140
C   28.758   -2.194   44.340
O   29.022   -1.403   43.407
O   28.431   -1.878   45.610
C   28.049   -0.468   45.841
C   25.832   -3.857   36.876
C   25.518   -5.317   36.757
C   25.945   -6.351   35.942
C   27.091   -6.313   35.021
C   25.182   -7.693   36.071
C   23.784   -7.838   35.389
C   23.794   -7.844   33.823
C   22.707   -6.983   33.086
C   21.415   -7.802   32.758
C   23.123   -6.265   31.778
C   24.129   -5.111   32.028
C   25.323   -5.194   31.137
C   25.050   -4.411   29.869
C   25.531   -3.006   30.186
C   25.755   -5.022   28.671
C   24.628   -5.508   27.679
C   24.270   -4.404   26.694
C   22.817   -4.524   26.106
C   22.701   -3.871   24.642
C   21.961   -3.712   27.090
H   22.020   -4.178   42.962
H   22.207   -9.888   46.381
H   28.123   -8.494   48.107
H   26.615   -2.298   42.894
H   24.101   -3.088   41.602
H   23.424   -2.076   44.104
H   23.254   -1.425   42.418
H   24.831   -1.211   43.332
H   26.016   -4.395   40.860
H   27.531   -4.051   41.485
H   27.842   -2.401   39.979
H   26.466   -1.497   40.518
H   19.590   -6.194   42.521
H   19.935   -4.742   43.442
H   18.661   -5.814   43.844
H   20.067   -9.991   46.591
H   20.748   -10.476   44.937
H   19.029   -10.632   45.296
H   24.397   -11.212   46.947
H   25.842   -9.802   49.102
H   22.774   -11.517   48.349
H   22.549   -9.844   48.892
H   23.780   -10.899   49.687
H   27.464   -11.080   46.780
H   26.328   -12.043   47.563
H   28.257   -12.557   48.776
H   27.734   -11.177   49.817
H   28.918   -11.028   48.466
H   30.922   -7.527   46.851
H   30.217   -7.457   48.479
H   31.096   -6.117   47.896
H   29.006   -3.903   43.106
H   26.967   -0.409   45.959
H   28.366   0.182   45.025
H   28.506   -0.042   46.734
H   26.476   -3.517   36.064
H   24.854   -3.384   36.784
H   24.586   -5.508   37.289
H   26.560   -6.768   34.185
H   27.806   -6.962   35.528
H   27.490   -5.311   34.862
H   24.998   -7.836   37.135
H   25.740   -8.575   35.756
H   23.040   -7.213   35.883
H   23.450   -8.846   35.636
H   23.661   -8.910   33.634
H   24.768   -7.637   33.380
H   22.418   -6.214   33.802
H   21.659   -8.853   32.912
H   21.006   -7.687   31.754
H   20.586   -7.475   33.386
H   22.278   -5.726   31.352
H   23.510   -6.971   31.043
H   24.489   -5.178   33.055
H   23.524   -4.205   32.016
H   25.552   -6.244   30.951
H   26.141   -4.732   31.690
H   23.968   -4.313   29.778
H   25.306   -2.679   31.201
H   25.027   -2.278   29.549
H   26.571   -2.842   29.903
H   26.415   -5.822   29.008
H   26.384   -4.326   28.115
H   23.799   -5.929   28.249
H   25.060   -6.154   26.915
H   24.882   -4.480   25.794
H   24.455   -3.415   27.112
H   22.557   -5.582   26.106
H   22.174   -2.918   24.583
H   22.143   -4.522   23.969
H   23.638   -3.836   24.086
H   20.987   -4.170   27.263
H   21.709   -2.712   26.738
H   22.445   -3.597   28.060
