140
37
Mg   9.578   3.473   28.066
C   11.125   1.982   30.942
C   7.998   5.594   30.071
C   7.865   4.435   25.295
C   11.011   0.820   26.298
N   9.628   3.778   30.224
C   10.345   3.078   31.167
C   10.053   3.680   32.553
C   8.792   4.581   32.354
C   8.836   4.785   30.800
C   7.435   3.994   32.808
C   11.270   4.556   33.140
C   11.729   4.172   34.549
C   10.805   3.656   35.573
O   10.658   2.483   35.837
O   10.004   4.666   36.128
N   8.216   4.836   27.662
C   7.759   5.686   28.674
C   6.952   6.708   28.062
C   6.898   6.446   26.646
C   7.732   5.169   26.472
C   6.311   7.832   28.900
C   6.203   7.222   25.491
O   6.094   6.804   24.350
C   5.613   8.562   25.767
N   9.456   2.704   26.092
C   8.652   3.318   25.134
C   8.664   2.510   23.855
C   9.621   1.298   24.181
C   10.007   1.578   25.637
C   7.311   2.146   23.228
C   10.796   1.300   23.182
C   10.564   1.015   21.650
N   10.851   1.818   28.503
C   11.385   0.876   27.633
C   12.284   -0.027   28.331
C   12.194   0.373   29.684
C   11.300   1.489   29.706
C   13.011   -1.098   27.800
C   12.702   0.086   31.024
O   13.536   -0.771   31.374
C   11.983   1.196   31.973
C   11.222   0.452   32.991
O   10.072   0.019   32.850
O   12.011   0.183   34.064
C   11.330   -0.437   35.199
C   9.067   4.409   37.129
C   9.709   4.949   38.385
C   10.150   4.276   39.490
C   10.465   2.829   39.351
C   10.563   5.010   40.769
C   9.377   5.691   41.478
C   9.466   7.196   41.112
C   9.259   8.153   42.245
C   7.834   7.886   42.788
C   9.495   9.669   42.053
C   10.582   10.381   42.906
C   10.048   11.639   43.555
C   10.469   11.806   45.045
C   11.304   13.137   45.214
C   9.275   11.779   45.995
C   8.592   10.450   46.132
C   8.581   9.968   47.570
C   8.328   8.367   47.717
C   7.749   8.092   49.142
C   9.700   7.651   47.503
H   7.408   6.191   30.769
H   7.256   4.733   24.440
H   11.456   -0.049   25.809
H   9.814   2.811   33.166
H   8.736   5.609   32.711
H   6.833   3.816   31.917
H   6.940   4.762   33.402
H   7.557   3.052   33.343
H   11.040   5.621   33.098
H   12.047   4.172   32.480
H   12.163   5.037   35.051
H   12.419   3.331   34.479
H   7.078   8.604   28.967
H   6.054   7.418   29.875
H   5.378   8.282   28.560
H   6.324   9.257   26.214
H   4.737   8.403   26.395
H   5.368   8.905   24.761
H   9.219   3.133   23.154
H   9.115   0.338   24.074
H   7.029   2.990   22.598
H   6.627   2.061   24.072
H   7.461   1.232   22.654
H   11.513   0.532   23.472
H   11.249   2.285   23.296
H   10.934   0.035   21.349
H   11.034   1.827   21.095
H   9.511   1.205   21.442
H   13.876   -1.253   28.445
H   13.335   -1.090   26.759
H   12.428   -2.013   27.702
H   12.739   1.684   32.588
H   11.927   -0.126   36.056
H   11.415   -1.506   35.005
H   10.274   -0.173   35.263
H   8.904   3.335   37.218
H   8.134   4.928   36.909
H   9.534   5.996   38.633
H   9.568   2.273   39.079
H   10.853   2.467   40.303
H   11.255   2.738   38.605
H   11.422   5.655   40.582
H   10.845   4.249   41.497
H   9.427   5.458   42.542
H   8.429   5.313   41.094
H   8.749   7.519   40.357
H   10.456   7.511   40.784
H   9.839   7.872   43.124
H   7.126   7.604   42.008
H   7.418   8.762   43.286
H   7.890   7.080   43.519
H   8.506   10.109   41.920
H   9.902   9.898   41.068
H   11.507   10.485   42.338
H   10.841   9.681   43.700
H   8.978   11.601   43.351
H   10.370   12.415   42.861
H   11.202   11.060   45.350
H   10.863   13.831   45.929
H   11.427   13.574   44.223
H   12.319   12.908   45.539
H   8.570   12.564   45.722
H   9.716   12.067   46.950
H   8.997   9.698   45.455
H   7.566   10.698   45.860
H   7.809   10.482   48.142
H   9.511   10.187   48.096
H   7.618   8.028   46.962
H   8.354   7.458   49.791
H   6.762   7.651   49.003
H   7.497   9.018   49.658
H   9.514   6.754   46.912
H   10.121   7.292   48.442
H   10.359   8.338   46.972
