140
26
Mg   2.376   -0.228   44.770
C   5.631   0.957   44.929
C   1.344   2.840   43.478
C   -0.642   -1.618   43.938
C   3.444   -3.284   45.974
N   3.359   1.663   44.190
C   4.768   1.838   44.273
C   5.170   3.296   43.826
C   3.721   3.909   43.474
C   2.694   2.776   43.788
C   3.439   5.242   44.333
C   6.240   3.247   42.665
C   5.963   2.088   41.616
C   6.258   2.567   40.171
O   6.212   3.690   39.695
O   6.824   1.490   39.521
N   0.571   0.523   43.842
C   0.345   1.832   43.428
C   -1.004   1.984   42.971
C   -1.569   0.619   43.060
C   -0.533   -0.254   43.588
C   -1.517   3.351   42.353
C   -2.913   0.245   42.596
O   -3.747   1.096   42.293
C   -3.354   -1.188   42.378
N   1.588   -2.239   44.806
C   0.260   -2.459   44.599
C   -0.228   -3.756   45.237
C   1.165   -4.360   45.827
C   2.078   -3.245   45.605
C   -1.417   -3.534   46.195
C   1.569   -5.706   45.285
C   2.208   -6.702   46.288
N   4.083   -1.061   45.265
C   4.403   -2.320   45.795
C   5.869   -2.487   45.918
C   6.343   -1.224   45.694
C   5.273   -0.414   45.174
C   6.537   -3.731   46.431
C   7.528   -0.418   45.759
O   8.664   -0.804   46.074
C   7.140   1.055   45.227
C   7.518   2.109   46.192
O   8.611   2.649   46.176
O   6.473   2.448   47.033
C   6.872   3.369   48.129
C   7.527   1.812   38.262
C   6.584   1.516   37.053
C   6.022   2.335   36.183
C   6.317   3.854   36.020
C   5.054   1.877   35.123
C   3.526   2.246   35.463
C   2.798   2.739   34.253
C   1.283   2.381   34.130
C   1.139   0.909   33.572
C   0.400   3.497   33.493
C   0.471   3.569   32.016
C   -0.931   3.616   31.354
C   -1.078   4.829   30.427
C   -1.749   5.980   31.224
C   -1.868   4.446   29.105
C   -0.928   4.489   27.916
C   -1.628   4.181   26.525
C   -0.652   3.687   25.445
C   -0.815   4.232   24.038
C   -0.581   2.161   25.518
H   0.973   3.806   43.129
H   -1.662   -2.005   43.876
H   3.856   -4.198   46.407
H   5.689   3.661   44.711
H   3.660   4.054   42.396
H   3.268   5.039   45.390
H   2.552   5.739   43.941
H   4.335   5.852   44.451
H   7.165   2.907   43.131
H   6.258   4.276   42.307
H   4.890   1.931   41.508
H   6.439   1.124   41.797
H   -2.568   3.441   42.079
H   -0.909   3.531   41.466
H   -1.246   4.058   43.137
H   -3.525   -1.719   43.315
H   -2.571   -1.717   41.835
H   -4.228   -1.203   41.727
H   -0.542   -4.346   44.376
H   1.117   -4.409   46.915
H   -1.123   -4.138   47.053
H   -2.334   -3.955   45.782
H   -1.477   -2.478   46.462
H   2.244   -5.564   44.441
H   0.616   -6.104   44.936
H   2.326   -6.324   47.304
H   3.170   -6.879   45.807
H   1.674   -7.648   46.369
H   6.942   -4.398   45.669
H   5.996   -4.272   47.208
H   7.425   -3.509   47.024
H   7.804   1.186   44.372
H   6.855   2.764   49.036
H   6.082   4.106   48.277
H   7.785   3.939   47.957
H   8.453   1.237   38.255
H   7.630   2.894   38.176
H   6.290   0.466   37.064
H   5.392   4.407   36.182
H   6.847   4.179   35.125
H   7.040   4.218   36.751
H   5.151   0.800   34.985
H   5.321   2.312   34.159
H   3.562   2.908   36.328
H   2.962   1.438   35.931
H   3.347   2.450   33.356
H   2.908   3.823   34.259
H   0.997   2.247   35.173
H   0.311   0.856   32.866
H   0.926   0.258   34.420
H   2.049   0.524   33.111
H   0.809   4.429   33.882
H   -0.557   3.298   33.975
H   0.992   2.657   31.726
H   1.099   4.413   31.730
H   -1.687   3.625   32.139
H   -1.057   2.667   30.833
H   -0.111   5.274   30.193
H   -1.726   5.895   32.310
H   -2.807   6.024   30.964
H   -1.277   6.899   30.876
H   -2.689   5.123   28.868
H   -2.260   3.431   29.171
H   -0.047   3.872   28.091
H   -0.453   5.467   27.841
H   -2.086   5.057   26.065
H   -2.366   3.389   26.646
H   0.328   4.046   25.761
H   -1.846   4.310   23.693
H   -0.422   3.493   23.340
H   -0.217   5.119   23.829
H   -1.386   1.615   25.026
H   -0.296   1.668   26.447
H   0.350   2.002   24.974
