140
32
Mg   -1.831   34.871   26.356
C   -3.043   33.316   29.260
C   -0.190   37.125   28.209
C   -1.637   36.939   23.646
C   -3.941   32.805   24.455
N   -1.594   35.036   28.503
C   -2.185   34.373   29.534
C   -1.634   34.835   30.898
C   -0.805   36.130   30.518
C   -0.902   36.127   28.963
C   -1.286   37.472   31.219
C   -0.874   33.806   31.772
C   -1.503   33.476   33.195
C   -0.531   33.460   34.392
O   0.545   32.828   34.419
O   -0.932   34.319   35.329
N   -0.822   36.623   25.913
C   -0.181   37.377   26.854
C   0.459   38.462   26.201
C   0.105   38.386   24.792
C   -0.801   37.250   24.731
C   1.187   39.517   26.968
C   0.412   39.392   23.615
O   0.054   39.187   22.407
C   1.349   40.561   24.009
N   -2.702   34.804   24.366
C   -2.496   35.828   23.506
C   -3.299   35.615   22.190
C   -3.617   34.068   22.252
C   -3.458   33.891   23.730
C   -4.510   36.554   22.072
C   -2.621   33.247   21.372
C   -1.767   32.177   22.014
N   -3.295   33.412   26.648
C   -3.923   32.537   25.798
C   -4.548   31.420   26.521
C   -4.246   31.733   27.912
C   -3.454   32.929   27.910
C   -5.535   30.413   26.043
C   -4.515   31.315   29.219
O   -5.179   30.391   29.645
C   -3.813   32.339   30.175
C   -4.897   32.953   31.000
O   -5.825   33.645   30.503
O   -4.568   32.917   32.325
C   -5.339   33.712   33.304
C   -0.078   34.346   36.552
C   -0.815   35.068   37.653
C   -0.393   35.203   38.909
C   0.957   34.645   39.426
C   -1.301   35.734   40.056
C   -1.228   37.253   40.488
C   -0.377   37.556   41.697
C   -1.125   38.304   42.776
C   -0.422   39.677   42.891
C   -1.108   37.624   44.287
C   0.205   36.968   44.783
C   0.545   37.280   46.247
C   1.444   36.235   46.911
C   1.133   36.156   48.425
C   2.936   36.486   46.573
C   3.753   35.167   46.154
C   4.752   35.378   44.972
C   4.436   34.408   43.772
C   5.803   33.761   43.272
C   3.885   35.168   42.574
H   0.369   37.741   28.916
H   -1.558   37.632   22.805
H   -4.536   32.070   23.909
H   -2.439   35.271   31.490
H   0.260   35.989   30.701
H   -1.896   38.118   30.589
H   -0.463   38.038   31.654
H   -2.044   37.272   31.977
H   0.165   34.105   31.910
H   -0.907   32.890   31.181
H   -1.880   32.455   33.136
H   -2.307   34.190   33.374
H   1.850   40.236   26.486
H   1.821   38.856   27.558
H   0.515   40.059   27.633
H   1.608   41.025   23.057
H   2.240   40.071   24.402
H   1.048   41.166   24.865
H   -2.727   35.867   21.297
H   -4.619   33.742   21.970
H   -4.701   36.694   21.008
H   -4.306   37.527   22.519
H   -5.280   35.978   22.584
H   -1.949   33.915   20.834
H   -3.209   32.643   20.681
H   -0.948   32.780   22.407
H   -1.408   31.491   21.247
H   -2.293   31.631   22.797
H   -5.773   30.519   24.985
H   -6.452   30.486   26.626
H   -5.115   29.410   26.118
H   -3.132   31.762   30.799
H   -4.804   34.080   34.179
H   -5.972   32.948   33.756
H   -5.971   34.423   32.773
H   0.818   34.875   36.228
H   0.129   33.319   36.854
H   -1.864   35.331   37.523
H   1.409   33.908   38.761
H   0.818   34.196   40.409
H   1.642   35.484   39.550
H   -1.241   35.109   40.946
H   -2.341   35.539   39.796
H   -2.259   37.571   40.642
H   -0.784   37.802   39.657
H   0.357   38.213   41.231
H   0.067   36.649   42.107
H   -2.157   38.443   42.457
H   0.629   39.535   43.143
H   -0.783   40.359   43.661
H   -0.483   40.198   41.936
H   -1.807   36.789   44.330
H   -1.378   38.270   45.123
H   1.073   37.368   44.260
H   0.204   35.903   44.551
H   -0.410   37.240   46.771
H   0.882   38.313   46.336
H   1.203   35.239   46.539
H   2.057   36.172   49.004
H   0.651   35.198   48.619
H   0.469   36.880   48.898
H   3.473   36.870   47.440
H   3.133   37.226   45.797
H   2.994   34.412   45.951
H   4.370   34.860   46.999
H   5.785   35.137   45.225
H   4.837   36.406   44.620
H   3.737   33.633   44.087
H   6.218   33.247   44.139
H   6.570   34.499   43.036
H   5.514   33.225   42.368
H   3.015   35.680   42.985
H   3.600   34.559   41.715
H   4.558   35.971   42.273
