140
28
Mg   29.944   59.308   40.648
C   26.839   57.817   39.619
C   31.505   56.484   39.299
C   32.733   60.921   40.641
C   28.090   62.240   41.330
N   29.253   57.471   39.480
C   27.949   57.120   39.223
C   27.919   55.771   38.551
C   29.285   55.125   39.004
C   30.131   56.424   39.265
C   29.120   54.116   40.296
C   27.734   55.939   36.965
C   26.880   54.878   36.282
C   26.127   55.376   34.993
O   24.959   55.389   34.733
O   27.122   55.756   34.078
N   31.926   58.717   40.219
C   32.333   57.539   39.656
C   33.790   57.639   39.550
C   34.234   58.934   39.945
C   32.976   59.602   40.345
C   34.618   56.517   38.943
C   35.679   59.485   39.914
O   36.576   58.827   39.425
C   36.064   60.895   40.396
N   30.320   61.308   40.990
C   31.619   61.698   41.097
C   31.701   63.242   41.408
C   30.206   63.658   41.572
C   29.476   62.317   41.322
C   32.625   63.858   42.594
C   29.791   64.816   40.702
C   28.952   65.994   41.257
N   27.863   59.950   40.610
C   27.257   61.157   40.996
C   25.838   61.070   40.883
C   25.627   59.786   40.347
C   26.877   59.134   40.274
C   24.801   62.096   41.197
C   24.526   58.873   39.875
O   23.285   59.029   39.899
C   25.308   57.605   39.348
C   24.820   56.332   40.053
O   25.105   55.967   41.205
O   23.850   55.681   39.335
C   23.144   54.598   39.974
C   26.406   56.113   32.803
C   27.380   56.144   31.586
C   27.358   56.820   30.372
C   26.071   57.396   29.745
C   28.592   56.910   29.445
C   29.487   55.647   29.416
C   30.882   55.825   30.028
C   32.070   55.646   29.077
C   32.149   56.890   28.167
C   33.373   55.480   29.945
C   34.159   54.164   29.817
C   35.686   54.505   29.681
C   36.466   53.460   28.698
C   37.573   52.716   29.555
C   37.016   54.151   27.344
C   36.606   53.454   26.059
C   36.143   54.374   24.858
C   37.343   54.902   24.012
C   37.931   56.197   24.613
C   36.970   55.121   22.486
H   31.990   55.515   39.169
H   33.655   61.498   40.745
H   27.667   63.206   41.611
H   27.086   55.204   38.966
H   29.726   54.512   38.217
H   28.125   54.304   40.700
H   29.915   54.464   40.956
H   29.249   53.102   39.918
H   28.795   55.949   36.716
H   27.393   56.949   36.736
H   26.146   54.582   37.031
H   27.483   54.022   35.979
H   34.225   55.572   39.319
H   35.701   56.632   38.908
H   34.356   56.650   37.894
H   35.432   61.521   39.766
H   37.117   61.018   40.146
H   35.810   61.009   41.450
H   32.113   63.582   40.458
H   29.995   63.754   42.637
H   33.340   64.533   42.124
H   33.193   63.022   43.003
H   31.995   64.331   43.347
H   29.259   64.499   39.806
H   30.666   65.392   40.401
H   29.660   66.816   41.359
H   28.470   65.741   42.201
H   28.174   66.207   40.524
H   23.921   61.670   41.679
H   24.622   62.457   40.184
H   25.280   62.915   41.734
H   25.042   57.575   38.291
H   22.060   54.713   39.969
H   23.371   54.327   41.005
H   23.348   53.723   39.358
H   25.772   56.997   32.873
H   25.733   55.339   32.433
H   28.383   55.818   31.862
H   25.333   56.598   29.825
H   26.320   57.774   28.754
H   25.840   58.286   30.331
H   29.213   57.743   29.776
H   28.334   57.012   28.391
H   29.633   55.412   28.362
H   29.033   54.783   29.901
H   30.932   55.070   30.814
H   30.924   56.764   30.579
H   31.868   54.748   28.493
H   31.530   56.771   27.278
H   33.202   56.959   27.897
H   31.883   57.849   28.613
H   33.114   55.574   30.999
H   33.958   56.357   29.669
H   33.968   53.598   28.905
H   34.027   53.549   30.707
H   36.079   54.522   30.697
H   35.884   55.502   29.287
H   35.763   52.641   28.546
H   38.168   52.230   28.782
H   36.962   52.008   30.116
H   38.156   53.391   30.182
H   38.104   54.082   27.336
H   36.693   55.192   27.321
H   35.942   52.599   26.185
H   37.466   52.920   25.655
H   35.612   55.222   25.290
H   35.375   53.771   24.374
H   38.050   54.073   24.011
H   38.654   56.075   25.420
H   37.117   56.832   24.962
H   38.337   56.826   23.821
H   37.646   54.534   21.865
H   36.941   56.169   22.186
H   35.991   54.710   22.243
