140
19
Mg   28.719   60.016   41.874
C   25.890   58.120   41.029
C   30.645   57.744   40.032
C   31.503   62.137   42.146
C   26.610   62.471   43.039
N   28.285   58.307   40.555
C   27.083   57.693   40.469
C   27.106   56.554   39.498
C   28.721   56.282   39.279
C   29.240   57.474   40.050
C   29.313   54.908   39.639
C   26.281   56.903   38.192
C   25.455   55.764   37.696
C   25.965   55.290   36.384
O   26.805   54.332   36.232
O   25.347   55.928   35.348
N   30.811   59.913   41.283
C   31.344   58.828   40.611
C   32.785   58.998   40.578
C   33.111   60.221   41.234
C   31.795   60.871   41.554
C   33.762   58.095   39.927
C   34.557   60.838   41.476
O   35.587   60.142   41.139
C   34.711   62.194   42.054
N   29.019   62.000   42.300
C   30.245   62.675   42.390
C   30.055   64.061   43.029
C   28.589   64.056   43.514
C   27.977   62.786   42.834
C   30.983   64.572   44.242
C   27.646   65.338   43.269
C   27.397   66.152   44.559
N   26.684   60.293   42.160
C   25.954   61.280   42.628
C   24.555   60.960   42.671
C   24.541   59.731   42.104
C   25.815   59.363   41.731
C   23.430   61.801   43.238
C   23.581   58.681   41.782
O   22.336   58.573   42.027
C   24.467   57.661   41.076
C   24.277   56.383   41.816
O   24.626   56.258   42.976
O   23.567   55.459   41.135
C   23.484   54.018   41.648
C   25.607   55.323   34.010
C   26.286   56.504   33.194
C   26.994   56.371   32.032
C   27.076   54.929   31.342
C   27.795   57.500   31.461
C   27.023   58.625   30.886
C   27.203   59.981   31.589
C   28.183   60.905   30.794
C   27.873   62.373   31.021
C   29.597   60.620   31.326
C   30.512   60.163   30.171
C   30.806   58.594   30.118
C   32.213   58.142   29.933
C   32.424   58.122   28.393
C   32.505   56.779   30.514
C   33.978   56.445   30.709
C   34.463   55.166   29.945
C   35.966   55.145   29.580
C   36.106   55.898   28.286
C   36.548   53.754   29.497
H   31.193   56.953   39.516
H   32.317   62.850   42.291
H   25.951   63.172   43.556
H   26.591   55.710   39.958
H   29.066   56.358   38.248
H   29.870   55.273   40.502
H   30.077   54.445   39.015
H   28.526   54.222   39.953
H   27.043   57.228   37.484
H   25.591   57.732   38.351
H   24.398   55.988   37.553
H   25.469   54.848   38.286
H   34.359   58.706   39.250
H   33.406   57.212   39.396
H   34.449   57.655   40.650
H   34.334   62.895   41.310
H   35.780   62.279   42.246
H   34.177   62.354   42.990
H   30.108   64.783   42.215
H   28.552   63.764   44.564
H   31.633   65.390   43.932
H   31.683   63.741   44.322
H   30.527   64.867   45.187
H   26.679   65.224   42.781
H   28.284   65.975   42.656
H   26.338   66.397   44.645
H   27.897   67.116   44.467
H   27.635   65.579   45.455
H   23.207   62.489   42.423
H   23.784   62.347   44.113
H   22.543   61.197   43.428
H   24.013   57.601   40.086
H   24.404   53.700   42.138
H   23.314   53.256   40.888
H   22.739   53.973   42.443
H   24.783   55.107   33.329
H   26.228   54.428   33.981
H   26.229   57.509   33.612
H   26.767   54.926   30.297
H   26.505   54.133   31.821
H   28.117   54.606   31.370
H   28.437   57.102   30.675
H   28.512   57.936   32.157
H   25.935   58.581   30.925
H   27.201   58.765   29.820
H   27.637   59.794   32.571
H   26.242   60.497   31.602
H   28.171   60.642   29.736
H   27.997   62.608   32.078
H   26.834   62.488   30.713
H   28.460   63.056   30.407
H   29.640   59.908   32.150
H   29.896   61.558   31.794
H   31.472   60.655   30.326
H   30.224   60.532   29.187
H   30.227   58.100   29.338
H   30.449   58.173   31.059
H   32.882   58.897   30.346
H   32.473   57.097   28.025
H   33.314   58.659   28.067
H   31.596   58.588   27.859
H   32.018   55.931   30.032
H   32.028   56.712   31.492
H   34.161   56.364   31.780
H   34.596   57.301   30.438
H   33.727   55.128   29.142
H   34.312   54.315   30.608
H   36.454   55.723   30.365
H   35.175   55.971   27.724
H   36.934   55.431   27.752
H   36.462   56.925   28.372
H   36.929   53.424   28.531
H   35.749   53.048   29.725
H   37.395   53.806   30.182
