140
12
Mg   46.611   15.793   28.132
C   44.376   15.160   30.907
C   48.172   18.176   30.144
C   48.317   16.681   25.549
C   44.433   13.895   26.205
N   46.294   16.485   30.320
C   45.425   16.135   31.249
C   45.667   16.796   32.643
C   46.856   17.711   32.205
C   47.123   17.425   30.808
C   46.708   19.235   32.446
C   46.011   15.837   33.829
C   46.157   16.592   35.177
C   47.365   16.321   36.094
O   48.263   15.522   35.853
O   47.376   17.158   37.221
N   48.097   17.145   27.903
C   48.652   17.995   28.865
C   49.770   18.592   28.266
C   49.847   18.185   26.919
C   48.680   17.330   26.745
C   50.686   19.577   29.046
C   50.863   18.520   25.906
O   50.947   17.979   24.841
C   51.828   19.604   25.997
N   46.276   15.536   26.092
C   47.259   15.839   25.216
C   46.971   15.179   23.813
C   45.823   14.184   24.093
C   45.475   14.549   25.538
C   46.740   16.223   22.672
C   46.162   12.681   24.015
C   45.671   11.948   22.790
N   44.752   14.782   28.445
C   44.063   13.945   27.576
C   42.875   13.348   28.262
C   43.015   13.877   29.536
C   44.171   14.631   29.621
C   41.804   12.435   27.729
C   42.402   13.867   30.832
O   41.402   13.334   31.270
C   43.249   14.675   31.796
C   42.408   15.820   32.372
O   41.813   16.619   31.754
O   42.463   15.664   33.722
C   41.430   16.469   34.425
C   48.581   16.968   38.120
C   48.807   18.096   39.055
C   49.920   18.407   39.751
C   51.116   17.446   39.755
C   50.118   19.661   40.608
C   50.581   21.013   39.930
C   51.353   22.075   40.767
C   52.474   22.812   40.070
C   53.418   23.374   41.089
C   51.958   23.946   39.119
C   51.950   23.503   37.618
C   52.857   24.418   36.837
C   53.639   23.702   35.664
C   55.124   23.352   36.078
C   53.571   24.572   34.342
C   52.307   24.224   33.642
C   52.320   24.568   32.083
C   51.923   23.431   31.212
C   50.542   22.873   31.482
C   52.946   22.280   31.045
H   48.721   18.888   30.765
H   48.892   16.818   24.631
H   43.781   13.171   25.713
H   44.801   17.456   32.691
H   47.708   17.471   32.841
H   46.497   19.726   31.496
H   47.573   19.704   32.915
H   45.796   19.344   33.033
H   46.944   15.296   33.666
H   45.180   15.133   33.867
H   45.160   16.500   35.607
H   46.261   17.672   35.074
H   50.705   19.257   30.088
H   50.434   20.618   28.842
H   51.754   19.438   28.878
H   52.339   19.636   25.035
H   52.534   19.467   26.816
H   51.275   20.541   26.061
H   47.855   14.598   23.549
H   45.002   14.477   23.439
H   47.673   16.269   22.109
H   46.710   17.259   23.010
H   45.933   15.890   22.019
H   45.793   12.176   24.907
H   47.252   12.668   24.046
H   45.610   12.619   21.933
H   44.768   11.391   23.039
H   46.436   11.209   22.550
H   40.832   12.889   27.921
H   41.884   11.558   28.371
H   41.917   12.275   26.657
H   43.721   14.030   32.536
H   41.167   17.455   34.043
H   41.895   16.608   35.401
H   40.517   15.890   34.562
H   49.533   16.611   37.728
H   48.277   16.188   38.818
H   48.039   18.870   39.077
H   50.815   16.457   40.102
H   51.841   17.788   40.493
H   51.512   17.477   38.740
H   50.599   19.389   41.548
H   49.064   19.814   40.843
H   49.595   21.405   39.682
H   51.181   20.695   39.077
H   51.716   21.508   41.625
H   50.637   22.849   41.044
H   53.054   22.105   39.478
H   54.082   24.124   40.660
H   53.975   22.511   41.454
H   52.971   23.851   41.961
H   52.402   24.926   39.296
H   50.913   24.139   39.361
H   50.988   23.450   37.109
H   52.381   22.510   37.488
H   53.644   24.812   37.480
H   52.257   25.256   36.483
H   53.152   22.738   35.519
H   55.525   23.970   36.881
H   55.912   23.642   35.383
H   55.087   22.274   36.233
H   54.505   24.491   33.786
H   53.519   25.615   34.656
H   51.503   24.787   34.116
H   51.846   23.243   33.754
H   53.184   25.080   31.659
H   51.497   25.273   31.964
H   51.944   23.930   30.243
H   50.123   23.206   32.431
H   50.632   21.808   31.692
H   49.834   22.951   30.657
H   52.517   21.328   31.357
H   53.779   22.680   31.623
H   53.253   22.169   30.005
