140
13
Mg   8.334   48.284   25.226
C   6.375   48.402   28.172
C   11.010   49.101   27.089
C   10.105   48.387   22.471
C   5.377   47.908   23.411
N   8.575   48.784   27.345
C   7.755   48.561   28.393
C   8.444   48.874   29.717
C   9.748   49.431   29.206
C   9.832   49.109   27.776
C   9.945   50.995   29.507
C   8.630   47.705   30.767
C   7.856   47.750   32.126
C   7.594   46.381   32.924
O   7.295   45.346   32.441
O   7.795   46.633   34.267
N   10.383   48.622   24.826
C   11.313   48.879   25.747
C   12.582   49.023   25.071
C   12.386   48.827   23.709
C   10.908   48.644   23.602
C   13.881   49.193   25.797
C   13.364   48.684   22.548
O   12.960   48.656   21.367
C   14.858   48.807   22.781
N   7.788   48.428   23.220
C   8.743   48.323   22.281
C   8.128   47.986   20.914
C   6.709   47.728   21.191
C   6.582   47.914   22.706
C   8.337   49.052   19.868
C   6.257   46.272   20.722
C   4.766   46.088   20.352
N   6.261   48.203   25.645
C   5.186   48.147   24.792
C   3.931   48.158   25.525
C   4.364   48.197   26.862
C   5.729   48.351   26.871
C   2.551   47.794   25.001
C   3.944   48.139   28.242
O   2.801   47.988   28.739
C   5.241   48.336   29.178
C   5.211   47.202   30.114
O   5.783   46.107   29.879
O   4.317   47.466   31.158
C   4.010   46.311   32.080
C   8.042   45.409   35.104
C   8.649   45.892   36.366
C   8.169   46.248   37.570
C   6.807   45.981   38.107
C   9.121   46.858   38.539
C   9.351   46.268   40.005
C   10.885   46.203   40.175
C   11.339   46.229   41.648
C   11.295   47.656   42.111
C   12.739   45.520   41.698
C   12.798   44.077   42.118
C   14.035   43.616   42.888
C   13.721   42.730   44.106
C   13.719   41.264   43.599
C   14.792   42.915   45.222
C   14.239   43.618   46.500
C   14.433   45.105   46.389
C   13.275   45.979   45.855
C   13.659   47.440   45.643
C   12.012   45.774   46.768
H   11.854   49.395   27.717
H   10.681   48.331   21.545
H   4.508   47.853   22.752
H   7.764   49.581   30.192
H   10.589   48.945   29.701
H   10.957   51.353   29.319
H   9.735   51.217   30.553
H   9.325   51.580   28.827
H   9.678   47.496   30.983
H   8.255   46.832   30.234
H   6.968   48.383   32.114
H   8.584   48.345   32.678
H   13.696   49.507   26.824
H   14.471   50.007   25.374
H   14.494   48.293   25.843
H   15.100   48.184   23.641
H   15.018   49.877   22.917
H   15.531   48.575   21.956
H   8.620   47.070   20.586
H   6.009   48.492   20.854
H   7.475   49.674   19.626
H   8.619   48.608   18.914
H   9.173   49.618   20.280
H   6.321   45.699   21.647
H   6.926   45.732   20.052
H   4.685   46.933   19.668
H   4.059   46.122   21.181
H   4.701   45.180   19.753
H   2.528   47.774   23.912
H   1.817   48.557   25.262
H   2.346   46.826   25.459
H   4.969   49.308   29.589
H   3.966   45.368   31.535
H   2.989   46.470   32.427
H   4.715   46.197   32.903
H   8.743   44.700   34.664
H   7.102   44.869   35.215
H   9.715   46.111   36.302
H   6.790   45.775   39.177
H   6.437   45.121   37.548
H   6.201   46.860   37.886
H   8.565   47.765   38.778
H   10.039   47.063   37.988
H   8.877   45.289   39.931
H   8.864   46.976   40.674
H   11.385   47.031   39.673
H   11.166   45.254   39.718
H   10.657   45.628   42.250
H   10.674   47.637   43.006
H   10.854   48.297   41.348
H   12.280   48.101   42.250
H   13.467   46.020   42.338
H   13.245   45.614   40.737
H   12.707   43.550   41.168
H   11.889   43.812   42.657
H   14.636   44.480   43.171
H   14.641   43.192   42.087
H   12.732   42.969   44.498
H   12.742   40.971   43.215
H   14.020   40.610   44.418
H   14.414   40.953   42.820
H   15.607   43.505   44.803
H   15.220   41.975   45.570
H   14.688   43.150   47.377
H   13.166   43.433   46.548
H   15.269   45.232   45.702
H   14.772   45.465   47.361
H   12.933   45.533   44.921
H   13.970   47.572   44.607
H   14.503   47.600   46.314
H   12.878   48.179   45.825
H   12.300   45.255   47.682
H   11.182   45.255   46.289
H   11.523   46.735   46.930
