140
15
Mg   8.715   2.989   27.779
C   10.121   1.591   30.712
C   6.912   5.228   29.908
C   7.294   4.445   25.144
C   10.183   0.556   25.832
N   8.420   3.270   30.075
C   9.137   2.605   31.082
C   8.833   3.145   32.483
C   7.908   4.324   32.167
C   7.606   4.275   30.604
C   6.625   4.365   33.069
C   10.153   3.630   33.103
C   10.075   4.285   34.471
C   10.356   3.419   35.695
O   10.784   2.264   35.690
O   10.119   4.084   36.909
N   7.303   4.617   27.514
C   6.713   5.341   28.519
C   5.914   6.389   27.908
C   6.196   6.382   26.486
C   6.954   5.138   26.284
C   5.189   7.521   28.707
C   5.851   7.333   25.384
O   6.106   7.126   24.211
C   5.219   8.608   25.745
N   8.751   2.591   25.737
C   8.024   3.321   24.833
C   8.192   2.748   23.468
C   9.335   1.646   23.636
C   9.395   1.520   25.160
C   6.891   2.172   22.724
C   10.689   1.914   22.968
C   11.489   0.852   22.319
N   9.871   1.358   28.115
C   10.407   0.461   27.258
C   11.280   -0.494   27.923
C   11.156   -0.092   29.296
C   10.357   1.063   29.349
C   12.001   -1.665   27.322
C   11.569   -0.453   30.612
O   12.209   -1.429   30.996
C   10.947   0.634   31.616
C   10.122   0.103   32.689
O   9.024   -0.419   32.569
O   10.896   0.020   33.871
C   10.222   -0.660   34.996
C   10.622   3.469   38.144
C   10.758   4.603   39.146
C   11.409   4.498   40.309
C   12.057   3.213   40.860
C   11.544   5.717   41.202
C   10.150   6.100   41.906
C   9.741   7.473   41.482
C   9.247   8.517   42.499
C   7.757   8.200   42.873
C   9.190   9.921   41.827
C   10.574   10.667   41.848
C   10.476   12.152   42.185
C   11.597   12.544   43.274
C   12.254   13.841   42.871
C   10.921   12.705   44.638
C   10.967   11.427   45.541
C   9.602   10.775   45.629
C   9.146   10.466   47.059
C   7.936   9.508   47.007
C   8.856   11.683   47.903
H   6.444   6.063   30.434
H   6.884   4.941   24.262
H   10.838   -0.073   25.226
H   8.412   2.369   33.123
H   8.477   5.239   32.328
H   5.956   5.011   32.500
H   6.761   4.687   34.101
H   6.300   3.327   32.992
H   10.686   4.207   32.348
H   10.880   2.820   33.158
H   9.006   4.334   34.674
H   10.625   5.226   34.482
H   5.790   8.430   28.674
H   5.054   7.321   29.770
H   4.325   7.791   28.100
H   5.207   9.257   24.870
H   5.642   9.077   26.633
H   4.225   8.316   26.084
H   8.664   3.631   23.038
H   8.952   0.722   23.201
H   6.862   1.116   22.454
H   6.667   2.703   21.799
H   6.008   2.281   23.354
H   11.336   2.216   23.791
H   10.628   2.717   22.234
H   11.012   -0.128   22.358
H   12.475   0.807   22.781
H   11.715   1.104   21.282
H   11.833   -1.650   26.245
H   11.577   -2.607   27.670
H   13.074   -1.669   27.513
H   11.741   1.242   32.051
H   10.042   -1.691   34.691
H   9.227   -0.290   35.240
H   10.816   -0.594   35.907
H   11.571   2.947   38.023
H   9.957   2.669   38.468
H   10.313   5.554   38.855
H   11.700   2.379   40.256
H   11.796   2.985   41.894
H   13.143   3.269   40.784
H   11.940   6.468   40.519
H   12.244   5.537   42.018
H   10.341   6.184   42.975
H   9.324   5.436   41.650
H   8.947   7.343   40.746
H   10.657   7.938   41.115
H   9.977   8.369   43.295
H   7.471   8.290   43.921
H   7.354   7.238   42.556
H   7.066   8.798   42.278
H   8.470   10.518   42.387
H   9.044   9.834   40.750
H   10.934   10.562   40.824
H   11.317   10.126   42.433
H   9.473   12.394   42.536
H   10.735   12.748   41.310
H   12.416   11.833   43.387
H   13.269   13.857   43.267
H   11.700   14.701   43.248
H   12.318   13.903   41.784
H   9.908   13.071   44.471
H   11.433   13.450   45.246
H   11.298   11.776   46.519
H   11.601   10.601   45.221
H   9.514   9.804   45.141
H   8.849   11.406   45.157
H   9.992   9.910   47.463
H   7.324   9.590   47.905
H   8.281   8.477   46.923
H   7.325   9.742   46.136
H   8.859   12.621   47.348
H   9.613   11.821   48.675
H   7.885   11.611   48.393
