140
23
Mg   0.103   43.939   24.786
C   2.319   43.254   27.398
C   -2.515   43.156   26.933
C   -1.911   43.984   22.111
C   2.957   44.548   22.688
N   -0.100   43.121   26.878
C   0.957   43.185   27.798
C   0.496   43.129   29.285
C   -1.059   42.929   29.068
C   -1.266   43.016   27.556
C   -1.610   41.629   29.737
C   0.798   44.345   30.168
C   1.087   44.164   31.668
C   0.871   42.790   32.330
O   1.648   41.838   32.504
O   -0.341   42.736   33.039
N   -1.921   43.586   24.512
C   -2.867   43.388   25.505
C   -4.196   43.364   24.925
C   -4.033   43.602   23.525
C   -2.560   43.757   23.305
C   -5.485   43.219   25.824
C   -5.116   43.814   22.499
O   -4.744   44.076   21.365
C   -6.555   43.837   22.798
N   0.501   44.255   22.724
C   -0.516   44.280   21.815
C   0.003   44.668   20.357
C   1.480   45.020   20.694
C   1.670   44.539   22.103
C   -0.226   43.483   19.464
C   1.799   46.536   20.491
C   2.597   46.977   19.257
N   2.159   43.863   24.907
C   3.186   44.207   23.982
C   4.448   44.028   24.634
C   4.181   43.697   25.966
C   2.749   43.617   26.079
C   5.832   44.329   24.099
C   4.815   43.348   27.219
O   5.979   43.163   27.500
C   3.625   43.270   28.274
C   3.765   42.087   29.091
O   3.393   40.946   28.833
O   4.415   42.452   30.182
C   4.734   41.364   31.143
C   -0.557   41.568   33.790
C   -1.944   41.442   34.374
C   -2.374   40.778   35.482
C   -1.536   39.830   36.362
C   -3.892   40.851   35.742
C   -4.245   41.824   36.830
C   -4.301   43.303   36.438
C   -5.533   44.105   36.840
C   -5.142   45.575   37.168
C   -6.579   44.129   35.638
C   -8.029   44.133   36.179
C   -8.856   42.923   35.687
C   -9.543   42.176   36.865
C   -8.589   41.157   37.433
C   -10.878   41.472   36.418
C   -11.842   41.380   37.525
C   -12.309   39.908   37.951
C   -12.165   39.564   39.395
C   -11.601   38.190   39.738
C   -13.464   39.718   40.282
H   -3.310   42.959   27.655
H   -2.515   43.986   21.201
H   3.841   44.886   22.145
H   0.942   42.266   29.779
H   -1.607   43.749   29.534
H   -2.002   41.031   28.914
H   -2.312   41.841   30.543
H   -0.809   41.041   30.187
H   0.081   45.154   30.031
H   1.717   44.756   29.752
H   0.311   44.746   32.165
H   2.076   44.549   31.912
H   -5.996   44.167   25.990
H   -5.250   42.979   26.860
H   -6.225   42.500   25.472
H   -6.680   42.854   23.252
H   -7.217   43.915   21.936
H   -6.837   44.610   23.514
H   -0.578   45.488   19.935
H   2.111   44.370   20.088
H   -0.999   43.769   18.751
H   -0.566   42.689   20.129
H   0.704   43.244   18.949
H   2.257   46.866   21.423
H   0.849   47.070   20.516
H   2.131   47.807   18.725
H   2.801   46.125   18.608
H   3.508   47.423   19.659
H   6.369   44.979   24.790
H   5.789   44.706   23.077
H   6.330   43.362   24.031
H   3.649   44.131   28.942
H   5.813   41.218   31.097
H   4.429   40.339   30.932
H   4.432   41.784   32.102
H   0.196   41.496   34.575
H   -0.610   40.695   33.139
H   -2.628   42.200   33.993
H   -1.373   40.206   37.372
H   -0.525   39.695   35.978
H   -2.040   38.864   36.314
H   -4.181   39.838   36.020
H   -4.443   41.093   34.832
H   -3.678   41.798   37.761
H   -5.228   41.489   37.158
H   -3.963   43.414   35.408
H   -3.450   43.689   37.000
H   -5.903   43.619   37.743
H   -4.228   45.815   36.625
H   -5.135   45.734   38.246
H   -6.007   46.122   36.792
H   -6.238   43.368   34.937
H   -6.547   45.096   35.135
H   -8.558   45.025   35.846
H   -8.099   44.167   37.266
H   -8.235   42.342   35.005
H   -9.718   43.344   35.170
H   -9.653   42.908   37.665
H   -8.524   41.408   38.492
H   -7.633   41.133   36.910
H   -8.901   40.120   37.313
H   -10.526   40.497   36.081
H   -11.295   41.996   35.558
H   -12.828   41.747   37.239
H   -11.583   41.893   38.452
H   -11.858   39.127   37.339
H   -13.374   39.788   37.754
H   -11.519   40.302   39.869
H   -12.427   37.519   39.972
H   -10.915   38.116   40.582
H   -11.100   37.701   38.903
H   -13.212   39.743   41.342
H   -14.186   38.950   40.004
H   -13.856   40.714   40.079
