140
19
Mg   24.684   -7.110   46.301
C   26.836   -4.811   44.820
C   22.183   -6.229   44.166
C   23.061   -9.709   47.612
C   27.822   -8.429   47.850
N   24.673   -5.779   44.713
C   25.581   -4.833   44.294
C   24.987   -3.863   43.318
C   23.432   -4.301   43.297
C   23.406   -5.529   44.147
C   22.547   -3.202   43.879
C   25.772   -4.000   41.889
C   26.045   -2.625   41.199
C   24.969   -2.251   40.217
O   23.820   -2.111   40.582
O   25.390   -2.336   38.904
N   22.863   -7.841   45.942
C   21.966   -7.370   45.013
C   20.730   -8.048   45.154
C   20.916   -9.065   46.128
C   22.326   -8.919   46.658
C   19.443   -7.785   44.313
C   19.814   -9.996   46.630
O   18.678   -9.887   46.206
C   20.073   -11.075   47.673
N   25.310   -8.720   47.649
C   24.442   -9.678   48.022
C   25.110   -10.830   48.841
C   26.639   -10.587   48.580
C   26.596   -9.067   48.135
C   24.577   -10.952   50.317
C   27.212   -11.483   47.490
C   27.682   -12.921   47.840
N   26.843   -6.695   46.418
C   27.928   -7.308   47.023
C   29.116   -6.526   46.878
C   28.715   -5.434   46.075
C   27.371   -5.619   45.825
C   30.408   -6.748   47.505
C   29.141   -4.241   45.412
O   30.253   -3.712   45.361
C   27.973   -3.723   44.593
C   27.554   -2.355   45.037
O   27.349   -1.374   44.326
O   27.379   -2.261   46.430
C   27.207   -0.921   47.065
C   24.308   -2.096   37.997
C   23.732   -3.461   37.514
C   24.185   -4.239   36.427
C   25.392   -3.884   35.578
C   23.426   -5.494   36.063
C   22.619   -5.395   34.698
C   22.859   -6.630   33.778
C   23.105   -6.346   32.269
C   22.236   -7.344   31.407
C   24.670   -6.322   32.064
C   25.247   -5.118   31.253
C   26.097   -5.482   30.004
C   25.536   -4.908   28.669
C   26.705   -4.393   27.806
C   24.719   -5.997   27.837
C   23.729   -5.312   26.833
C   22.340   -5.088   27.420
C   22.065   -3.490   27.586
C   21.281   -3.301   28.893
C   21.195   -2.952   26.452
H   21.344   -5.785   43.626
H   22.629   -10.595   48.082
H   28.627   -8.938   48.384
H   25.157   -2.852   43.688
H   23.125   -4.441   42.260
H   23.108   -2.275   44.003
H   22.090   -3.521   44.816
H   21.783   -2.964   43.139
H   24.987   -4.482   41.306
H   26.602   -4.704   41.835
H   26.991   -2.608   40.658
H   26.051   -1.892   42.006
H   19.796   -7.597   43.299
H   19.003   -6.855   44.672
H   18.814   -8.651   44.103
H   20.212   -10.597   48.643
H   20.882   -11.701   47.299
H   19.186   -11.702   47.761
H   24.949   -11.832   48.443
H   27.212   -10.533   49.506
H   23.541   -11.290   50.327
H   24.547   -10.023   50.886
H   25.245   -11.610   50.874
H   27.969   -10.891   46.977
H   26.428   -11.636   46.748
H   28.346   -13.402   47.121
H   26.861   -13.609   48.041
H   28.332   -12.905   48.714
H   30.980   -7.526   46.999
H   30.233   -7.059   48.535
H   31.040   -5.860   47.463
H   28.250   -3.739   43.539
H   26.504   -0.989   47.896
H   26.729   -0.186   46.418
H   28.223   -0.699   47.390
H   24.615   -1.549   37.105
H   23.524   -1.436   38.369
H   22.901   -3.707   38.175
H   25.062   -3.736   34.549
H   26.168   -4.649   35.615
H   25.861   -2.946   35.873
H   22.707   -5.717   36.852
H   24.136   -6.321   36.065
H   22.820   -4.443   34.206
H   21.553   -5.276   34.890
H   21.956   -7.232   33.873
H   23.649   -7.276   34.160
H   22.721   -5.355   32.028
H   22.540   -6.973   30.429
H   21.148   -7.317   31.481
H   22.415   -8.419   31.378
H   24.918   -7.265   31.577
H   25.181   -6.318   33.027
H   25.944   -4.736   31.999
H   24.444   -4.386   31.173
H   26.173   -6.569   29.977
H   27.078   -5.061   30.224
H   24.780   -4.140   28.832
H   26.581   -4.824   26.812
H   27.703   -4.645   28.165
H   26.651   -3.315   27.659
H   24.160   -6.661   28.497
H   25.412   -6.613   27.265
H   23.623   -6.058   26.045
H   24.083   -4.363   26.431
H   22.234   -5.594   28.380
H   21.591   -5.445   26.714
H   22.985   -2.910   27.659
H   20.198   -3.308   28.774
H   21.548   -2.288   29.198
H   21.672   -3.938   29.686
H   21.717   -2.179   25.887
H   20.310   -2.436   26.825
H   20.854   -3.734   25.773
