140
32
Mg   46.334   34.960   28.191
C   44.782   33.379   30.867
C   46.732   37.766   30.076
C   47.461   36.466   25.382
C   45.390   32.190   26.162
N   45.652   35.515   30.230
C   45.260   34.692   31.189
C   45.416   35.442   32.580
C   45.628   36.915   32.180
C   46.024   36.704   30.706
C   44.400   37.855   32.265
C   46.569   34.867   33.477
C   46.398   34.850   34.893
C   46.230   36.154   35.581
O   45.975   37.239   35.039
O   46.334   35.957   36.936
N   47.085   36.808   27.776
C   47.255   37.791   28.763
C   48.006   38.854   28.104
C   48.068   38.609   26.719
C   47.518   37.249   26.555
C   48.327   40.124   28.840
C   48.654   39.481   25.608
O   48.567   39.145   24.436
C   49.432   40.724   26.008
N   46.497   34.320   26.086
C   46.954   35.207   25.160
C   46.999   34.483   23.813
C   46.465   33.082   24.119
C   46.122   33.209   25.542
C   46.341   35.401   22.659
C   47.386   31.908   23.704
C   47.014   30.960   22.616
N   45.386   33.094   28.391
C   45.089   32.071   27.504
C   44.424   30.959   28.218
C   44.178   31.538   29.483
C   44.849   32.753   29.564
C   44.101   29.568   27.695
C   43.592   31.354   30.790
O   42.927   30.409   31.226
C   43.821   32.604   31.687
C   44.313   32.181   32.970
O   45.349   31.548   33.142
O   43.391   32.490   33.888
C   43.597   32.099   35.297
C   45.982   37.015   37.836
C   47.212   37.751   38.359
C   47.311   38.732   39.257
C   46.253   39.454   40.086
C   48.726   39.190   39.681
C   49.466   40.084   38.711
C   49.636   41.584   39.166
C   49.959   42.539   37.952
C   51.480   42.571   37.608
C   49.513   44.027   38.198
C   47.986   44.286   38.085
C   47.545   45.356   39.038
C   46.095   45.953   38.747
C   46.127   47.308   38.106
C   45.126   46.042   39.968
C   43.858   45.176   39.873
C   42.524   45.924   39.594
C   41.484   45.138   38.807
C   41.917   45.201   37.271
C   40.120   45.717   38.995
H   46.897   38.645   30.702
H   47.799   36.903   24.440
H   45.119   31.380   25.482
H   44.444   35.315   33.056
H   46.466   37.356   32.720
H   44.327   38.420   31.336
H   44.680   38.631   32.977
H   43.418   37.438   32.488
H   47.364   35.581   33.262
H   46.869   33.865   33.171
H   47.396   34.502   35.160
H   45.674   34.091   35.190
H   49.375   40.261   28.573
H   48.328   40.173   29.929
H   47.729   40.989   28.551
H   50.198   40.439   26.729
H   48.787   41.382   26.590
H   49.838   41.238   25.137
H   48.047   34.391   23.528
H   45.467   32.965   23.697
H   45.755   36.221   23.074
H   45.768   34.783   21.968
H   47.078   35.998   22.121
H   47.578   31.417   24.658
H   48.343   32.349   23.422
H   47.761   30.933   21.822
H   46.028   31.320   22.323
H   46.953   29.977   23.084
H   43.472   29.573   26.804
H   43.517   29.046   28.453
H   45.076   29.131   27.479
H   42.898   33.170   31.813
H   44.657   31.910   35.469
H   43.030   31.171   35.364
H   43.209   32.870   35.963
H   45.478   36.529   38.672
H   45.231   37.689   37.424
H   48.196   37.358   38.101
H   46.494   39.529   41.147
H   45.274   39.000   39.935
H   46.172   40.509   39.824
H   49.313   38.300   39.909
H   48.741   39.743   40.621
H   48.961   39.983   37.751
H   50.517   39.798   38.688
H   50.520   41.628   39.801
H   48.859   42.063   39.762
H   49.462   42.282   37.017
H   51.958   41.729   38.108
H   52.021   43.366   38.122
H   51.664   42.649   36.536
H   49.829   44.627   37.345
H   49.916   44.471   39.108
H   47.361   43.406   38.235
H   47.719   44.763   37.142
H   48.237   46.198   39.041
H   47.677   45.016   40.066
H   45.652   45.391   37.924
H   46.831   47.364   37.276
H   46.430   48.056   38.838
H   45.123   47.570   37.773
H   44.747   47.030   40.229
H   45.727   45.642   40.784
H   43.672   44.598   40.778
H   43.929   44.427   39.084
H   42.720   46.955   39.299
H   41.998   46.141   40.524
H   41.563   44.151   39.264
H   41.601   46.173   36.893
H   41.492   44.466   36.587
H   42.999   45.321   37.215
H   39.673   45.140   39.806
H   39.470   45.467   38.157
H   40.096   46.753   39.333
