140
13
Mg   35.121   49.206   24.879
C   35.246   47.401   27.854
C   33.928   51.850   26.449
C   34.798   50.626   21.786
C   36.358   46.260   23.248
N   34.571   49.579   26.914
C   34.863   48.715   27.971
C   34.527   49.445   29.298
C   34.004   50.804   28.845
C   34.171   50.752   27.344
C   32.541   51.117   29.293
C   35.834   49.455   30.244
C   35.619   49.092   31.726
C   34.205   49.251   32.295
O   33.405   48.338   32.559
O   33.804   50.608   32.452
N   34.399   50.951   24.234
C   34.145   51.977   25.066
C   33.993   53.195   24.259
C   34.084   52.803   22.929
C   34.437   51.355   22.898
C   33.665   54.544   24.877
C   33.880   53.702   21.764
O   33.832   53.247   20.621
C   33.646   55.204   21.833
N   35.570   48.540   22.782
C   35.279   49.292   21.756
C   35.509   48.577   20.388
C   36.229   47.278   20.877
C   36.070   47.344   22.360
C   34.222   48.262   19.652
C   37.722   47.016   20.441
C   38.703   48.077   20.987
N   35.661   47.238   25.388
C   36.100   46.132   24.647
C   36.294   45.033   25.552
C   35.957   45.445   26.768
C   35.658   46.850   26.634
C   36.846   43.704   25.167
C   35.892   45.108   28.184
O   36.212   44.081   28.755
C   35.531   46.377   28.941
C   34.401   45.931   29.666
O   33.275   45.930   29.155
O   34.612   45.566   30.939
C   33.390   45.207   31.660
C   32.409   50.759   32.920
C   32.096   52.264   32.978
C   31.463   52.925   33.986
C   31.133   52.323   35.369
C   31.113   54.406   33.938
C   32.291   55.219   34.450
C   32.300   56.663   33.919
C   32.572   57.702   35.068
C   34.039   58.273   35.021
C   31.614   58.909   35.087
C   30.730   59.306   36.251
C   31.023   60.699   36.781
C   30.231   61.812   35.930
C   31.087   62.802   35.126
C   29.149   62.543   36.818
C   27.738   62.218   36.377
C   26.510   62.896   36.992
C   26.531   64.428   36.854
C   25.927   65.065   38.139
C   25.728   64.923   35.669
H   33.592   52.784   26.903
H   34.973   51.252   20.907
H   36.483   45.276   22.793
H   33.729   48.879   29.779
H   34.640   51.630   29.164
H   32.151   50.366   29.979
H   31.859   51.373   28.482
H   32.705   52.016   29.889
H   36.341   50.420   30.236
H   36.508   48.735   29.779
H   36.322   49.614   32.375
H   35.906   48.068   31.964
H   34.413   55.239   24.495
H   33.862   54.541   25.949
H   32.640   54.796   24.607
H   34.337   55.686   22.525
H   32.594   55.362   22.070
H   33.811   55.707   20.880
H   36.152   49.190   19.756
H   35.691   46.402   20.513
H   33.357   48.875   19.902
H   33.910   47.217   19.667
H   34.342   48.540   18.605
H   37.715   47.056   19.351
H   37.989   46.091   20.953
H   39.486   47.615   21.589
H   38.270   48.904   21.550
H   39.342   48.567   20.253
H   37.608   43.420   25.892
H   37.311   43.935   24.208
H   35.945   43.102   25.042
H   36.365   46.679   29.574
H   32.912   44.266   31.387
H   32.586   45.943   31.675
H   33.734   45.234   32.694
H   32.301   50.288   33.897
H   31.653   50.428   32.209
H   32.562   52.816   32.162
H   31.175   51.240   35.256
H   30.107   52.590   35.623
H   31.869   52.670   36.095
H   30.261   54.701   34.551
H   30.909   54.646   32.895
H   33.189   54.795   34.000
H   32.364   55.166   35.536
H   31.375   56.862   33.378
H   33.040   56.770   33.127
H   32.494   57.186   36.025
H   34.072   59.262   34.563
H   34.749   57.633   34.498
H   34.354   58.268   36.065
H   30.911   58.778   34.264
H   32.115   59.831   34.794
H   30.805   58.560   37.041
H   29.673   59.309   35.984
H   32.097   60.779   36.611
H   30.825   60.772   37.850
H   29.694   61.260   35.159
H   31.057   62.537   34.069
H   32.120   62.713   35.464
H   30.678   63.812   35.152
H   29.377   63.608   36.841
H   29.221   62.194   37.848
H   27.524   61.163   36.551
H   27.608   62.250   35.296
H   26.463   62.586   38.036
H   25.669   62.438   36.471
H   27.551   64.721   36.606
H   25.176   65.832   37.951
H   26.668   65.692   38.636
H   25.395   64.369   38.788
H   25.924   65.973   35.456
H   24.662   64.821   35.873
H   26.081   64.361   34.804
