140
37
Mg   -9.567   18.347   42.116
C   -6.208   17.589   42.276
C   -8.731   21.671   41.453
C   -12.806   18.861   41.210
C   -10.164   14.795   42.394
N   -7.727   19.480   41.745
C   -6.495   18.970   42.019
C   -5.445   19.991   41.732
C   -6.203   21.355   41.817
C   -7.706   20.793   41.771
C   -6.003   22.349   42.968
C   -4.609   19.895   40.301
C   -5.340   19.282   39.183
C   -5.074   19.787   37.690
O   -4.002   20.127   37.206
O   -6.249   19.668   36.930
N   -10.682   20.037   41.491
C   -10.124   21.298   41.296
C   -11.213   22.217   40.944
C   -12.464   21.502   40.858
C   -12.030   20.079   41.198
C   -10.985   23.712   40.805
C   -13.807   22.080   40.512
O   -13.903   23.289   40.424
C   -15.000   21.223   40.291
N   -11.145   17.004   41.665
C   -12.410   17.486   41.502
C   -13.480   16.378   41.445
C   -12.560   15.084   41.638
C   -11.164   15.629   41.939
C   -14.591   16.476   42.505
C   -12.652   14.091   40.438
C   -12.579   12.579   40.721
N   -8.476   16.450   42.496
C   -8.770   15.135   42.569
C   -7.537   14.322   42.906
C   -6.572   15.358   42.740
C   -7.154   16.597   42.528
C   -7.395   12.914   43.126
C   -5.138   15.430   42.751
O   -4.264   14.585   42.867
C   -4.838   16.901   42.470
C   -3.999   17.354   43.621
O   -2.954   17.994   43.530
O   -4.512   16.947   44.826
C   -3.762   17.268   46.041
C   -6.109   19.938   35.499
C   -7.078   18.923   34.740
C   -7.669   19.334   33.546
C   -7.275   20.551   32.799
C   -8.710   18.466   32.976
C   -10.208   18.782   33.395
C   -11.238   18.958   32.244
C   -12.103   20.144   32.254
C   -13.656   19.734   32.419
C   -11.752   20.990   30.982
C   -11.674   22.494   31.320
C   -10.429   23.170   30.698
C   -10.772   24.295   29.749
C   -10.039   25.648   30.070
C   -10.590   23.898   28.290
C   -11.926   24.127   27.512
C   -11.984   23.488   26.183
C   -11.243   24.416   25.088
C   -12.242   24.893   24.070
C   -10.050   23.721   24.392
H   -8.433   22.703   41.252
H   -13.838   19.068   40.918
H   -10.340   13.734   42.585
H   -4.763   19.911   42.578
H   -6.133   21.842   40.844
H   -6.874   22.791   43.451
H   -5.417   23.198   42.615
H   -5.555   21.800   43.796
H   -3.720   19.316   40.547
H   -4.273   20.872   39.952
H   -6.374   19.435   39.490
H   -5.034   18.236   39.160
H   -11.518   24.056   39.918
H   -9.940   24.009   40.723
H   -11.354   24.257   41.673
H   -15.283   20.674   41.189
H   -14.847   20.496   39.493
H   -15.867   21.841   40.053
H   -14.046   16.331   40.515
H   -12.771   14.501   42.534
H   -14.729   17.556   42.553
H   -14.189   16.088   43.442
H   -15.552   16.105   42.149
H   -11.749   14.376   39.897
H   -13.523   14.261   39.805
H   -13.276   12.113   40.025
H   -12.919   12.361   41.734
H   -11.626   12.054   40.648
H   -6.565   12.569   42.509
H   -8.328   12.387   42.925
H   -7.115   12.712   44.159
H   -4.332   16.847   41.506
H   -3.662   16.354   46.626
H   -4.351   18.029   46.553
H   -2.776   17.687   45.841
H   -5.109   19.716   35.128
H   -6.509   20.946   35.390
H   -7.506   18.094   35.305
H   -6.355   20.906   33.264
H   -8.000   21.364   32.783
H   -7.180   20.198   31.772
H   -8.529   17.438   33.291
H   -8.591   18.493   31.893
H   -10.181   19.593   34.123
H   -10.547   17.965   34.032
H   -11.881   18.128   32.535
H   -10.694   18.714   31.331
H   -11.886   20.746   33.136
H   -14.167   20.281   33.211
H   -13.762   18.682   32.682
H   -14.272   19.947   31.545
H   -12.487   20.913   30.181
H   -10.856   20.609   30.492
H   -11.720   22.720   32.386
H   -12.556   22.982   30.907
H   -9.674   22.466   30.346
H   -9.884   23.613   31.531
H   -11.773   24.640   30.011
H   -9.001   25.420   30.314
H   -10.438   26.052   31.000
H   -10.123   26.335   29.228
H   -10.230   22.878   28.156
H   -9.755   24.498   27.928
H   -12.054   25.196   27.340
H   -12.746   23.726   28.108
H   -13.004   23.173   25.961
H   -11.547   22.499   26.323
H   -10.907   25.368   25.500
H   -12.838   24.146   23.547
H   -11.804   25.423   23.225
H   -12.934   25.528   24.625
H   -9.111   24.184   24.696
H   -10.126   23.697   23.304
H   -10.052   22.662   24.650
