140
25
Mg   1.594   8.360   26.173
C   1.745   10.544   28.865
C   2.343   5.778   28.319
C   1.500   6.433   23.474
C   1.725   11.169   24.052
N   2.029   8.179   28.324
C   1.914   9.208   29.269
C   1.843   8.684   30.740
C   2.121   7.149   30.545
C   2.172   6.977   28.976
C   3.444   6.652   31.163
C   0.515   9.025   31.375
C   0.355   8.949   32.867
C   1.516   8.303   33.675
O   2.481   8.908   34.136
O   1.261   6.989   34.039
N   1.961   6.398   25.949
C   2.323   5.528   26.919
C   2.569   4.227   26.208
C   2.450   4.433   24.791
C   1.905   5.764   24.671
C   2.792   2.993   26.982
C   2.647   3.511   23.671
O   2.541   3.754   22.461
C   3.087   2.108   24.019
N   1.434   8.761   24.081
C   1.370   7.765   23.169
C   1.257   8.232   21.725
C   1.256   9.845   21.948
C   1.466   9.953   23.479
C   2.385   7.771   20.739
C   -0.084   10.592   21.548
C   0.001   12.042   20.914
N   1.645   10.465   26.406
C   1.794   11.477   25.460
C   1.876   12.725   26.115
C   1.834   12.447   27.490
C   1.757   11.030   27.583
C   2.037   14.081   25.504
C   1.903   13.018   28.796
O   2.030   14.216   29.055
C   1.709   11.811   29.774
C   2.889   11.961   30.640
O   4.052   12.219   30.386
O   2.496   11.751   31.977
C   3.494   12.015   33.064
C   2.202   6.280   34.958
C   1.385   5.183   35.737
C   1.145   4.865   37.029
C   1.918   5.461   38.195
C   0.032   3.872   37.412
C   0.427   2.333   37.331
C   0.669   1.740   38.757
C   1.959   0.841   38.829
C   3.216   1.744   38.979
C   1.924   -0.169   39.957
C   2.389   -1.610   39.435
C   3.193   -2.468   40.528
C   4.752   -2.691   40.336
C   5.157   -4.182   40.078
C   5.640   -1.998   41.400
C   6.499   -0.907   40.704
C   7.685   -0.538   41.615
C   9.073   -0.903   40.962
C   10.134   -1.163   42.086
C   9.391   0.094   39.816
H   2.607   4.979   29.016
H   1.486   5.870   22.538
H   1.910   11.970   23.333
H   2.690   9.154   31.240
H   1.378   6.526   31.043
H   3.994   7.466   31.635
H   4.069   6.137   30.433
H   3.253   5.841   31.865
H   -0.250   8.409   30.903
H   0.196   10.045   31.160
H   -0.648   8.556   33.038
H   0.206   9.905   33.368
H   2.625   3.288   28.018
H   3.813   2.611   26.991
H   2.074   2.223   26.699
H   3.218   1.539   23.099
H   2.270   1.663   24.588
H   3.998   2.126   24.617
H   0.262   7.946   21.385
H   2.069   10.419   21.502
H   3.237   7.302   21.230
H   2.699   8.566   20.063
H   1.823   7.063   20.129
H   -0.843   10.485   22.323
H   -0.502   10.029   20.713
H   0.838   12.128   20.221
H   0.256   12.690   21.753
H   -0.933   12.376   20.462
H   2.735   14.702   26.066
H   1.085   14.606   25.577
H   2.410   13.999   24.483
H   0.722   11.773   30.237
H   3.085   12.518   33.940
H   4.429   12.537   32.860
H   3.803   11.034   33.423
H   2.558   7.076   35.613
H   3.007   5.886   34.338
H   0.718   4.646   35.062
H   2.893   5.755   37.805
H   2.122   4.619   38.856
H   1.287   6.217   38.662
H   -0.856   3.925   36.782
H   -0.347   4.185   38.385
H   1.381   2.149   36.836
H   -0.246   1.674   36.782
H   -0.212   1.212   39.120
H   0.776   2.540   39.490
H   2.076   0.386   37.845
H   3.397   2.376   38.109
H   3.999   1.026   39.225
H   3.123   2.437   39.815
H   0.877   -0.306   40.227
H   2.459   0.252   40.808
H   2.996   -1.717   38.535
H   1.511   -2.206   39.187
H   2.861   -3.506   40.569
H   2.972   -2.146   41.545
H   5.032   -2.222   39.393
H   5.696   -4.631   40.913
H   5.776   -4.255   39.184
H   4.375   -4.905   39.849
H   6.345   -2.724   41.805
H   5.103   -1.538   42.229
H   5.993   0.055   40.789
H   6.744   -1.241   39.696
H   7.611   -1.045   42.578
H   7.625   0.538   41.779
H   8.998   -1.845   40.420
H   9.774   -1.207   43.114
H   10.939   -0.436   41.978
H   10.699   -2.087   41.960
H   10.476   0.192   39.781
H   9.128   1.096   40.156
H   9.063   -0.181   38.814
