140
32
Mg   6.916   57.069   41.423
C   5.791   53.740   41.021
C   9.959   56.051   40.071
C   7.627   60.251   40.765
C   3.583   57.931   42.302
N   7.692   55.057   40.592
C   7.102   53.911   40.529
C   7.996   52.778   40.075
C   9.374   53.475   40.172
C   9.007   54.947   40.273
C   10.192   53.084   41.340
C   7.703   52.277   38.661
C   7.677   50.788   38.460
C   7.084   50.154   37.251
O   6.391   49.167   37.231
O   7.381   50.972   36.168
N   8.536   58.027   40.720
C   9.663   57.426   40.232
C   10.639   58.491   39.971
C   10.014   59.754   40.079
C   8.635   59.370   40.500
C   12.107   58.167   39.592
C   10.615   61.101   39.763
O   11.747   61.232   39.300
C   10.022   62.443   40.207
N   5.703   58.821   41.279
C   6.325   60.065   41.172
C   5.318   61.221   41.334
C   3.992   60.521   41.835
C   4.392   59.009   41.815
C   5.733   62.488   42.039
C   2.687   60.740   41.073
C   2.386   62.091   40.494
N   5.080   56.099   41.770
C   3.842   56.526   42.260
C   2.971   55.378   42.581
C   3.731   54.312   42.107
C   4.991   54.755   41.584
C   1.591   55.353   43.314
C   3.773   52.800   42.024
O   2.918   52.013   42.408
C   5.099   52.360   41.352
C   4.685   51.514   40.176
O   4.217   51.890   39.099
O   4.924   50.177   40.445
C   4.442   49.159   39.547
C   6.702   50.520   34.944
C   6.748   51.535   33.755
C   6.132   51.396   32.559
C   5.173   50.310   32.219
C   6.023   52.680   31.757
C   5.515   52.682   30.290
C   6.523   53.422   29.437
C   6.342   54.997   29.659
C   5.296   55.625   28.732
C   7.678   55.846   29.670
C   7.993   56.516   31.117
C   8.443   57.937   30.957
C   10.008   58.190   31.249
C   10.279   59.535   31.979
C   10.789   58.167   29.982
C   12.201   57.358   30.105
C   13.297   57.997   29.216
C   14.636   57.245   29.369
C   15.551   57.795   30.515
C   15.422   57.230   27.948
H   10.985   55.716   39.907
H   7.895   61.289   40.558
H   2.620   58.279   42.682
H   7.987   51.961   40.795
H   10.040   53.361   39.316
H   9.568   52.490   42.008
H   10.778   53.846   41.853
H   10.920   52.390   40.919
H   8.430   52.601   37.916
H   6.699   52.617   38.407
H   7.295   50.324   39.369
H   8.722   50.504   38.336
H   12.279   58.508   38.571
H   12.320   57.110   39.748
H   12.829   58.772   40.141
H   9.239   62.714   39.498
H   10.773   63.228   40.111
H   9.656   62.452   41.234
H   5.145   61.481   40.290
H   3.696   60.807   42.844
H   4.880   63.067   42.393
H   6.225   63.131   41.310
H   6.434   62.307   42.854
H   1.943   60.475   41.824
H   2.610   59.946   40.331
H   1.704   62.599   41.175
H   1.884   61.904   39.544
H   3.300   62.663   40.337
H   0.842   54.831   42.718
H   1.330   56.388   43.534
H   1.571   54.841   44.276
H   5.702   51.754   42.028
H   3.457   48.887   39.926
H   5.090   48.283   39.589
H   4.459   49.435   38.492
H   5.631   50.354   35.057
H   7.097   49.545   34.657
H   7.415   52.393   33.833
H   4.137   50.642   32.158
H   5.136   49.539   32.989
H   5.462   49.879   31.260
H   6.978   53.180   31.921
H   5.313   53.321   32.279
H   4.510   53.103   30.262
H   5.515   51.689   29.842
H   6.441   53.263   28.362
H   7.519   53.169   29.800
H   5.832   55.158   30.608
H   5.698   55.998   27.790
H   4.901   56.456   29.317
H   4.481   54.962   28.442
H   7.665   56.609   28.891
H   8.503   55.141   29.565
H   8.643   55.894   31.733
H   7.076   56.453   31.702
H   7.933   58.503   31.737
H   8.167   58.268   29.956
H   10.282   57.399   31.948
H   11.122   60.046   31.513
H   10.294   59.330   33.050
H   9.455   60.183   31.682
H   11.090   59.149   29.617
H   10.235   57.776   29.128
H   12.005   56.325   29.816
H   12.498   57.301   31.152
H   13.483   59.027   29.520
H   12.979   58.040   28.175
H   14.407   56.185   29.487
H   15.583   57.025   31.286
H   15.191   58.669   31.058
H   16.582   57.908   30.181
H   15.026   56.519   27.223
H   16.503   57.099   27.892
H   15.289   58.230   27.536
