140
10
Mg   53.169   23.461   44.132
C   50.319   25.383   43.868
C   51.278   20.694   44.003
C   55.956   21.710   43.872
C   54.986   26.402   44.515
N   51.100   23.107   43.670
C   50.092   24.029   43.658
C   48.696   23.362   43.688
C   49.083   21.932   44.242
C   50.585   21.856   43.907
C   48.771   21.646   45.785
C   48.000   23.429   42.232
C   48.827   22.687   41.143
C   49.141   23.560   39.913
O   49.977   24.435   39.829
O   48.263   23.158   38.884
N   53.592   21.465   43.824
C   52.639   20.468   43.870
C   53.304   19.185   43.687
C   54.712   19.431   43.650
C   54.811   20.926   43.818
C   52.558   17.816   43.686
C   55.789   18.435   43.476
O   55.431   17.253   43.420
C   57.287   18.748   43.357
N   55.197   23.969   44.104
C   56.169   23.070   44.042
C   57.512   23.661   43.913
C   57.237   25.228   44.225
C   55.731   25.219   44.257
C   58.625   23.077   44.811
C   57.848   26.184   43.152
C   58.700   27.326   43.666
N   52.806   25.484   44.240
C   53.615   26.542   44.560
C   52.763   27.699   44.820
C   51.481   27.242   44.542
C   51.588   25.910   44.123
C   53.145   29.106   45.204
C   50.108   27.715   44.520
O   49.649   28.814   44.861
C   49.268   26.551   43.917
C   48.915   27.032   42.584
O   49.672   27.140   41.631
O   47.565   27.236   42.561
C   47.096   27.744   41.267
C   48.482   23.828   37.643
C   49.586   23.179   36.972
C   49.767   21.797   36.747
C   48.758   20.715   36.894
C   51.041   21.424   36.060
C   51.014   20.591   34.768
C   52.342   20.054   34.368
C   52.508   18.496   34.602
C   53.095   18.167   35.983
C   53.423   17.771   33.512
C   52.575   16.790   32.563
C   53.435   15.679   32.051
C   52.659   14.537   31.352
C   51.989   13.519   32.302
C   53.498   13.928   30.120
C   53.148   14.594   28.775
C   54.037   14.240   27.631
C   53.530   13.003   26.798
C   54.587   11.862   26.563
C   52.945   13.496   25.411
H   50.678   19.808   44.217
H   56.857   21.105   43.755
H   55.585   27.305   44.654
H   48.053   23.893   44.390
H   48.564   21.118   43.735
H   48.015   20.865   45.705
H   48.353   22.458   46.381
H   49.669   21.253   46.260
H   47.736   24.435   41.905
H   47.019   22.976   42.376
H   48.280   21.784   40.872
H   49.800   22.299   41.445
H   52.621   17.244   42.761
H   51.520   17.876   44.013
H   52.908   17.143   44.469
H   57.528   19.405   42.521
H   57.790   17.806   43.137
H   57.648   19.262   44.248
H   57.756   23.572   42.854
H   57.566   25.429   45.245
H   58.400   22.072   45.166
H   58.854   23.579   45.751
H   59.534   23.022   44.212
H   56.990   26.688   42.706
H   58.297   25.699   42.286
H   59.367   27.047   44.482
H   58.094   28.215   43.840
H   59.423   27.486   42.866
H   54.182   29.256   45.504
H   52.577   29.570   46.010
H   52.979   29.743   44.335
H   48.361   26.387   44.499
H   46.009   27.810   41.323
H   47.218   27.141   40.367
H   47.492   28.743   41.084
H   48.528   24.916   37.594
H   47.585   23.671   37.043
H   50.403   23.847   36.698
H   48.504   20.399   35.882
H   47.857   21.217   37.247
H   49.042   19.858   37.505
H   51.457   20.781   36.836
H   51.712   22.262   35.869
H   50.731   21.246   33.944
H   50.237   19.837   34.897
H   53.096   20.420   35.064
H   52.608   20.414   33.374
H   51.468   18.174   34.657
H   53.407   17.129   36.096
H   52.324   18.282   36.744
H   53.880   18.874   36.250
H   54.208   17.211   34.020
H   53.857   18.529   32.860
H   52.397   17.295   31.614
H   51.665   16.381   33.002
H   53.867   15.217   32.939
H   54.268   16.060   31.460
H   51.723   14.793   30.856
H   51.057   13.159   31.866
H   51.790   14.115   33.192
H   52.616   12.711   32.680
H   53.277   12.862   30.061
H   54.545   14.105   30.367
H   53.096   15.682   28.815
H   52.157   14.269   28.456
H   54.952   13.842   28.070
H   54.287   15.047   26.941
H   52.751   12.383   27.243
H   54.672   11.137   27.373
H   55.590   12.287   26.542
H   54.500   11.230   25.680
H   53.541   14.212   24.845
H   51.949   13.933   25.487
H   52.772   12.647   24.751
