140
27
Mg   3.677   0.405   44.149
C   6.335   2.541   44.103
C   1.753   2.898   42.488
C   1.329   -2.033   43.312
C   5.551   -1.959   45.662
N   4.016   2.436   43.366
C   5.207   3.122   43.411
C   5.136   4.556   42.752
C   3.618   4.612   42.436
C   3.062   3.219   42.759
C   2.888   5.692   43.229
C   6.118   4.779   41.612
C   6.528   3.636   40.677
C   7.358   3.922   39.446
O   7.199   4.887   38.714
O   8.271   2.889   39.264
N   1.732   0.413   43.064
C   1.097   1.602   42.631
C   -0.231   1.244   42.246
C   -0.408   -0.205   42.523
C   0.952   -0.704   42.973
C   -1.212   2.233   41.703
C   -1.695   -0.916   42.147
O   -2.660   -0.254   41.758
C   -1.940   -2.404   42.160
N   3.574   -1.756   44.159
C   2.504   -2.499   43.946
C   2.742   -3.995   44.164
C   4.090   -3.917   44.971
C   4.414   -2.425   44.955
C   1.653   -4.700   44.946
C   5.187   -4.824   44.319
C   5.945   -5.610   45.397
N   5.559   0.299   44.760
C   6.192   -0.752   45.402
C   7.446   -0.270   45.831
C   7.612   1.017   45.298
C   6.387   1.291   44.676
C   8.400   -0.989   46.739
C   8.519   2.188   45.127
O   9.698   2.290   45.457
C   7.708   3.263   44.407
C   7.464   4.393   45.447
O   8.360   5.039   45.972
O   6.155   4.545   45.778
C   5.765   5.709   46.596
C   8.698   2.859   37.844
C   7.623   2.260   36.974
C   6.894   2.903   36.060
C   6.914   4.301   35.623
C   5.872   1.996   35.380
C   4.351   2.410   35.347
C   3.631   2.788   33.962
C   2.054   2.703   34.002
C   1.555   1.269   33.852
C   1.380   3.692   33.034
C   1.219   3.272   31.504
C   -0.222   3.545   30.957
C   -0.454   4.748   29.942
C   -0.621   6.058   30.769
C   -1.594   4.356   28.926
C   -1.018   3.854   27.548
C   -1.371   4.675   26.262
C   -2.368   3.875   25.306
C   -2.092   4.247   23.828
C   -3.867   4.259   25.543
H   1.184   3.650   41.938
H   0.501   -2.734   43.188
H   6.106   -2.667   46.280
H   5.569   5.234   43.488
H   3.428   4.638   41.363
H   3.548   6.521   43.482
H   2.291   5.289   44.046
H   2.208   6.073   42.467
H   6.969   5.164   42.174
H   5.751   5.597   40.993
H   5.637   3.135   40.299
H   7.061   2.974   41.359
H   -1.201   2.024   40.634
H   -0.931   3.272   41.876
H   -2.223   2.132   42.099
H   -2.105   -2.882   43.126
H   -1.074   -2.926   41.752
H   -2.770   -2.519   41.462
H   2.851   -4.527   43.219
H   3.836   -4.266   45.972
H   1.166   -3.872   45.461
H   1.928   -5.453   45.685
H   0.944   -5.193   44.281
H   5.941   -4.143   43.924
H   4.786   -5.393   43.480
H   7.016   -5.591   45.197
H   5.710   -6.670   45.306
H   5.782   -5.137   46.366
H   9.164   -0.325   47.144
H   9.070   -1.724   46.292
H   7.879   -1.570   47.500
H   8.279   3.534   43.519
H   4.700   5.938   46.559
H   6.242   6.662   46.368
H   5.940   5.504   47.652
H   9.526   2.151   37.821
H   9.143   3.799   37.516
H   7.408   1.201   37.118
H   6.887   4.340   34.534
H   7.863   4.733   35.940
H   6.058   4.802   36.076
H   5.873   0.988   35.795
H   6.203   1.877   34.348
H   4.436   3.376   35.845
H   3.759   1.735   35.965
H   4.058   2.116   33.218
H   3.989   3.774   33.665
H   1.734   3.025   34.993
H   2.348   0.607   33.503
H   0.658   1.204   33.237
H   1.398   0.920   34.873
H   2.024   4.568   33.110
H   0.381   3.855   33.439
H   1.466   2.240   31.255
H   1.912   3.936   30.987
H   -1.007   3.576   31.713
H   -0.430   2.628   30.407
H   0.449   5.000   29.387
H   -1.684   6.295   30.788
H   0.004   6.883   30.427
H   -0.430   6.070   31.842
H   -2.255   5.182   28.664
H   -2.286   3.587   29.270
H   -1.480   2.869   27.474
H   0.068   3.769   27.596
H   -0.334   4.681   25.926
H   -1.797   5.669   26.396
H   -2.169   2.805   25.359
H   -2.863   3.903   23.139
H   -1.075   4.070   23.477
H   -2.092   5.321   23.642
H   -4.310   3.296   25.798
H   -4.185   4.842   24.678
H   -3.999   4.927   26.394
