140
13
Mg   -4.537   24.651   26.966
C   -2.913   26.529   29.431
C   -5.477   22.437   29.428
C   -6.003   22.806   24.679
C   -3.139   26.747   24.549
N   -4.266   24.548   29.190
C   -3.702   25.476   29.952
C   -4.071   25.225   31.434
C   -4.776   23.849   31.468
C   -4.846   23.567   29.922
C   -3.917   22.752   31.991
C   -4.908   26.352   32.086
C   -4.581   26.515   33.618
C   -5.643   26.116   34.649
O   -6.681   26.738   34.850
O   -5.303   25.048   35.428
N   -5.462   22.751   27.044
C   -5.750   21.979   28.101
C   -6.419   20.792   27.777
C   -6.510   20.810   26.334
C   -6.003   22.145   25.911
C   -6.762   19.733   28.876
C   -6.974   19.730   25.347
O   -7.011   19.972   24.133
C   -7.280   18.397   25.841
N   -4.610   24.829   24.868
C   -5.332   23.914   24.168
C   -5.150   24.104   22.721
C   -4.127   25.364   22.591
C   -3.995   25.704   24.108
C   -4.779   22.840   21.947
C   -4.780   26.532   21.834
C   -3.786   27.411   21.030
N   -3.242   26.287   26.924
C   -2.836   27.075   25.902
C   -2.084   28.265   26.400
C   -2.078   28.056   27.784
C   -2.771   26.820   28.048
C   -1.474   29.381   25.648
C   -1.681   28.630   29.057
O   -1.149   29.679   29.396
C   -2.206   27.649   30.128
C   -1.052   27.144   30.892
O   -0.281   26.209   30.599
O   -1.050   27.803   32.076
C   0.068   27.283   32.945
C   -6.154   24.880   36.597
C   -7.122   23.734   36.582
C   -7.257   22.745   37.491
C   -6.586   22.653   38.845
C   -8.126   21.515   37.078
C   -9.577   21.925   37.121
C   -10.292   21.117   38.294
C   -11.518   20.223   37.817
C   -12.859   20.924   38.164
C   -11.458   18.765   38.347
C   -10.412   17.989   37.492
C   -9.955   16.708   38.171
C   -8.410   16.654   38.351
C   -8.025   17.461   39.561
C   -8.054   15.135   38.420
C   -6.647   14.965   37.850
C   -5.415   14.856   38.904
C   -4.421   13.728   38.618
C   -3.663   13.165   39.827
C   -3.381   14.058   37.480
H   -6.014   21.866   30.189
H   -6.452   22.131   23.947
H   -2.768   27.395   23.753
H   -3.079   25.123   31.875
H   -5.771   23.777   31.907
H   -3.246   23.123   32.766
H   -3.420   22.236   31.170
H   -4.544   22.080   32.577
H   -5.972   26.208   31.898
H   -4.738   27.295   31.566
H   -4.298   27.559   33.754
H   -3.730   25.900   33.911
H   -5.890   19.283   29.351
H   -7.367   18.967   28.391
H   -7.352   20.152   29.691
H   -8.222   18.412   26.390
H   -6.528   17.969   26.504
H   -7.256   17.740   24.972
H   -6.119   24.576   22.557
H   -3.154   25.099   22.176
H   -4.150   22.180   22.545
H   -4.281   23.049   21.000
H   -5.696   22.439   21.517
H   -5.097   27.297   22.542
H   -5.652   26.238   21.250
H   -3.595   28.402   21.442
H   -4.043   27.445   19.971
H   -2.835   26.884   20.960
H   -0.684   28.974   25.018
H   -1.020   30.080   26.351
H   -2.277   29.741   25.006
H   -2.870   28.248   30.751
H   1.063   27.549   32.589
H   0.060   26.214   33.161
H   -0.152   27.838   33.857
H   -6.650   25.823   36.825
H   -5.473   24.575   37.391
H   -7.657   23.548   35.650
H   -5.996   21.737   38.894
H   -7.359   22.762   39.606
H   -6.103   23.603   39.073
H   -7.713   20.739   37.722
H   -7.878   21.246   36.051
H   -10.175   21.677   36.244
H   -9.704   22.974   37.388
H   -10.793   21.733   39.040
H   -9.534   20.548   38.833
H   -11.564   20.085   36.736
H   -13.000   20.682   39.217
H   -13.507   20.427   37.442
H   -12.727   21.979   37.921
H   -12.440   18.292   38.339
H   -11.083   18.850   39.367
H   -9.613   18.599   37.070
H   -11.040   17.705   36.648
H   -10.357   15.921   37.533
H   -10.463   16.582   39.127
H   -8.053   17.192   37.473
H   -8.902   17.861   40.071
H   -7.375   18.291   39.285
H   -7.447   16.865   40.268
H   -8.687   14.517   37.782
H   -8.267   14.731   39.410
H   -6.433   15.837   37.232
H   -6.748   14.087   37.212
H   -5.796   14.862   39.926
H   -4.798   15.753   38.960
H   -4.991   12.933   38.137
H   -2.597   12.950   39.764
H   -4.115   12.210   40.098
H   -3.865   13.924   40.582
H   -2.368   13.989   37.876
H   -3.426   15.087   37.122
H   -3.489   13.436   36.592
