140
21
Mg   25.221   50.407   26.214
C   23.409   51.524   29.025
C   27.409   48.877   28.495
C   27.387   50.030   23.696
C   22.928   51.903   24.182
N   25.367   50.337   28.486
C   24.505   50.804   29.392
C   24.932   50.457   30.802
C   26.307   49.732   30.580
C   26.320   49.509   29.108
C   27.585   50.589   31.010
C   23.892   49.528   31.544
C   23.330   50.062   32.863
C   24.230   50.870   33.798
O   24.351   52.090   33.813
O   24.638   50.069   34.880
N   27.139   49.630   26.114
C   27.834   48.979   27.115
C   28.953   48.341   26.548
C   29.048   48.721   25.186
C   27.838   49.542   24.950
C   29.945   47.543   27.418
C   30.065   48.268   24.231
O   30.004   48.560   23.028
C   31.344   47.609   24.733
N   25.200   50.892   24.303
C   26.203   50.650   23.399
C   25.837   50.898   21.854
C   24.324   51.291   22.068
C   24.047   51.272   23.557
C   26.695   52.064   21.192
C   23.246   50.356   21.443
C   23.181   50.478   19.951
N   23.467   51.339   26.480
C   22.675   51.985   25.595
C   21.470   52.465   26.193
C   21.765   52.322   27.593
C   23.021   51.696   27.672
C   20.323   53.109   25.515
C   21.339   52.671   28.935
O   20.420   53.366   29.334
C   22.362   52.122   29.838
C   22.895   53.302   30.678
O   23.705   54.166   30.366
O   22.235   53.278   31.885
C   22.326   54.536   32.716
C   25.342   50.719   35.961
C   25.186   49.790   37.112
C   25.909   49.829   38.283
C   26.778   51.029   38.780
C   25.455   48.783   39.378
C   26.131   47.411   39.355
C   27.139   47.118   40.535
C   27.075   45.622   41.111
C   27.145   44.622   39.997
C   25.928   45.470   42.235
C   26.469   45.373   43.651
C   25.540   46.164   44.697
C   26.322   47.439   45.176
C   25.841   47.920   46.524
C   26.290   48.624   44.178
C   27.695   49.001   43.750
C   28.458   49.819   44.716
C   28.925   51.234   44.240
C   30.082   51.733   45.178
C   27.710   52.287   44.450
H   28.003   48.311   29.216
H   28.025   49.753   22.854
H   22.200   52.405   23.541
H   24.984   51.444   31.262
H   26.371   48.832   31.191
H   27.935   51.282   30.244
H   28.337   49.954   31.479
H   27.230   51.184   31.851
H   24.265   48.530   31.772
H   23.083   49.477   30.815
H   22.953   49.236   33.466
H   22.381   50.598   32.881
H   30.927   48.012   27.470
H   29.989   46.542   26.988
H   29.675   47.436   28.469
H   31.897   48.303   25.365
H   31.916   47.315   23.853
H   31.216   46.634   25.204
H   25.910   50.083   21.133
H   24.058   52.229   21.581
H   27.034   52.797   21.925
H   26.042   52.465   20.416
H   27.614   51.695   20.738
H   22.302   50.599   21.930
H   23.567   49.366   21.765
H   23.378   49.506   19.499
H   23.656   51.306   19.425
H   22.103   50.549   19.801
H   20.143   52.480   24.643
H   20.493   54.180   25.410
H   19.386   53.059   26.070
H   21.813   51.510   30.553
H   23.295   54.544   33.215
H   21.437   54.540   33.346
H   22.177   55.361   32.019
H   24.880   51.646   36.303
H   26.416   50.832   35.813
H   24.504   48.942   37.053
H   26.196   51.750   39.355
H   27.286   51.521   37.950
H   27.671   50.695   39.306
H   24.399   48.684   39.126
H   25.651   49.329   40.301
H   26.596   47.248   38.383
H   25.266   46.764   39.506
H   27.144   47.873   41.321
H   28.170   47.100   40.184
H   28.015   45.420   41.623
H   27.599   45.094   39.125
H   26.189   44.124   39.835
H   27.863   43.829   40.210
H   25.579   44.459   42.023
H   25.067   46.129   42.122
H   27.495   45.738   43.689
H   26.332   44.412   44.148
H   25.194   45.591   45.558
H   24.602   46.397   44.192
H   27.384   47.254   45.339
H   26.581   47.881   47.323
H   25.029   47.334   46.956
H   25.455   48.939   46.510
H   25.810   49.553   44.484
H   25.785   48.205   43.307
H   27.529   49.704   42.934
H   28.298   48.192   43.338
H   29.328   49.198   44.925
H   27.855   49.945   45.615
H   29.424   51.191   43.272
H   30.029   51.319   46.185
H   29.961   52.817   45.187
H   30.972   51.427   44.629
H   27.030   51.934   45.225
H   27.092   52.212   43.555
H   27.864   53.348   44.646
