140
11
Mg   2.793   -0.999   44.500
C   6.055   -0.174   43.384
C   1.606   1.424   42.439
C   -0.300   -2.339   44.944
C   4.154   -3.743   46.122
N   3.831   0.312   42.980
C   5.152   0.583   42.740
C   5.326   1.715   41.797
C   3.882   2.406   41.789
C   3.051   1.338   42.414
C   3.879   3.722   42.550
C   5.837   1.130   40.471
C   7.172   1.738   39.866
C   7.220   2.302   38.414
O   8.168   2.135   37.644
O   6.035   2.897   37.914
N   0.886   -0.547   43.860
C   0.608   0.575   43.067
C   -0.815   0.727   43.013
C   -1.428   -0.371   43.706
C   -0.264   -1.104   44.272
C   -1.446   1.922   42.310
C   -2.897   -0.691   43.870
O   -3.662   0.207   43.413
C   -3.555   -1.991   44.413
N   1.997   -2.808   45.423
C   0.682   -3.109   45.501
C   0.406   -4.465   46.203
C   1.847   -4.857   46.680
C   2.745   -3.736   45.973
C   -0.591   -4.263   47.330
C   2.303   -6.229   46.287
C   2.456   -7.175   47.447
N   4.640   -1.739   44.891
C   5.110   -2.844   45.612
C   6.472   -2.806   45.784
C   6.893   -1.747   44.954
C   5.754   -1.188   44.379
C   7.217   -3.667   46.782
C   8.086   -0.960   44.543
O   9.224   -1.086   44.874
C   7.508   0.012   43.446
C   8.174   1.355   43.652
O   9.077   1.804   42.946
O   7.575   2.040   44.737
C   8.099   3.396   44.898
C   6.076   3.371   36.533
C   4.971   2.589   35.808
C   5.124   1.441   35.023
C   6.370   0.829   34.586
C   3.807   0.858   34.511
C   2.744   1.871   33.940
C   2.094   1.186   32.667
C   0.571   0.979   32.961
C   0.033   -0.003   31.837
C   -0.415   2.234   33.122
C   -0.107   3.416   32.118
C   -1.379   4.129   31.767
C   -1.541   4.371   30.269
C   -2.651   5.393   30.009
C   -1.933   3.021   29.470
C   -1.017   2.739   28.281
C   -1.691   2.076   27.077
C   -2.383   3.100   26.135
C   -3.917   3.036   26.088
C   -1.816   3.034   24.729
H   1.227   2.330   41.961
H   -1.280   -2.751   45.196
H   4.634   -4.679   46.413
H   6.077   2.401   42.189
H   3.612   2.614   40.754
H   4.508   3.706   43.439
H   2.872   3.893   42.932
H   4.116   4.588   41.932
H   5.038   1.253   39.740
H   5.941   0.045   40.479
H   7.814   0.858   39.913
H   7.652   2.403   40.583
H   -1.042   2.044   41.305
H   -1.164   2.798   42.894
H   -2.518   1.882   42.112
H   -3.313   -1.965   45.475
H   -3.088   -2.846   43.924
H   -4.627   -2.031   44.218
H   -0.019   -5.226   45.549
H   1.955   -4.648   47.744
H   -1.447   -3.726   46.921
H   -0.111   -3.662   48.103
H   -0.921   -5.122   47.913
H   3.282   -6.244   45.808
H   1.690   -6.760   45.559
H   1.864   -8.064   47.233
H   2.035   -6.781   48.372
H   3.490   -7.424   47.688
H   8.186   -3.188   46.926
H   7.364   -4.685   46.422
H   6.591   -3.659   47.674
H   7.985   -0.366   42.541
H   7.356   4.039   45.370
H   8.239   3.885   43.935
H   9.048   3.427   45.434
H   7.045   3.223   36.056
H   5.771   4.417   36.582
H   3.948   2.933   35.962
H   6.256   -0.208   34.903
H   7.181   1.278   35.158
H   6.380   0.980   33.506
H   3.227   0.522   35.370
H   3.993   0.028   33.830
H   3.344   2.707   33.580
H   2.019   2.265   34.652
H   2.538   0.243   32.350
H   2.231   1.813   31.786
H   0.644   0.435   33.903
H   -1.056   -0.055   31.822
H   0.499   -0.987   31.887
H   0.240   0.413   30.851
H   -0.479   2.559   34.161
H   -1.379   1.770   32.918
H   0.265   2.912   31.226
H   0.640   4.021   32.632
H   -1.307   5.136   32.177
H   -2.307   3.659   32.091
H   -0.657   4.831   29.828
H   -3.394   5.317   30.803
H   -3.159   5.432   29.046
H   -2.143   6.352   30.108
H   -2.948   2.984   29.075
H   -1.778   2.162   30.123
H   -0.229   2.069   28.625
H   -0.422   3.547   27.856
H   -2.349   1.294   27.456
H   -0.896   1.522   26.580
H   -2.267   4.101   26.550
H   -4.280   3.993   26.464
H   -4.277   2.218   26.712
H   -4.187   3.070   25.033
H   -2.248   3.893   24.215
H   -1.984   2.085   24.220
H   -0.731   3.131   24.733
