140
17
Mg   9.443   3.866   28.157
C   10.641   2.440   31.145
C   7.851   6.228   30.042
C   7.888   4.746   25.391
C   10.666   1.017   26.466
N   8.976   4.086   30.497
C   9.820   3.617   31.449
C   9.648   4.411   32.767
C   8.620   5.551   32.352
C   8.505   5.296   30.833
C   7.269   5.474   33.095
C   10.990   4.825   33.435
C   10.830   5.734   34.639
C   11.314   5.078   35.964
O   12.475   5.066   36.358
O   10.256   4.545   36.723
N   8.079   5.374   27.761
C   7.560   6.265   28.626
C   6.809   7.280   27.861
C   6.776   6.868   26.479
C   7.595   5.575   26.533
C   6.103   8.420   28.673
C   6.136   7.527   25.242
O   6.149   7.077   24.099
C   5.510   8.903   25.367
N   9.427   3.057   26.214
C   8.748   3.655   25.300
C   8.604   2.749   24.084
C   9.721   1.733   24.288
C   9.974   1.930   25.709
C   7.182   2.056   23.919
C   11.071   1.856   23.528
C   11.420   0.677   22.654
N   10.375   2.161   28.652
C   10.938   1.217   27.862
C   11.699   0.311   28.625
C   11.688   0.840   29.905
C   10.796   1.916   29.868
C   12.374   -0.872   28.081
C   12.149   0.610   31.186
O   12.971   -0.178   31.602
C   11.572   1.749   32.078
C   10.915   1.076   33.280
O   9.891   0.411   33.272
O   11.674   1.183   34.410
C   11.033   0.630   35.602
C   10.607   4.027   38.093
C   10.708   5.117   39.055
C   11.393   5.198   40.199
C   12.377   4.094   40.666
C   11.225   6.386   41.138
C   9.854   6.696   41.860
C   9.157   8.014   41.326
C   9.200   9.118   42.432
C   8.116   8.859   43.521
C   9.040   10.549   41.821
C   10.292   11.368   42.147
C   9.924   12.514   43.077
C   10.640   12.572   44.417
C   11.284   13.953   44.696
C   9.595   12.078   45.482
C   10.211   11.101   46.500
C   9.497   11.069   47.898
C   8.679   9.796   48.170
C   7.297   9.700   47.477
C   8.510   9.455   49.647
H   7.399   7.030   30.629
H   7.378   5.034   24.468
H   10.995   0.192   25.830
H   9.112   3.715   33.412
H   9.111   6.523   32.395
H   7.604   5.835   34.067
H   6.881   4.455   33.090
H   6.544   6.166   32.665
H   11.600   5.325   32.683
H   11.557   3.925   33.672
H   9.751   5.857   34.736
H   11.313   6.673   34.367
H   5.823   8.278   29.717
H   5.069   8.525   28.345
H   6.689   9.339   28.663
H   5.035   9.365   24.502
H   6.208   9.606   25.822
H   4.651   8.869   26.037
H   8.762   3.387   23.214
H   9.353   0.720   24.126
H   7.352   0.994   23.737
H   6.576   2.521   23.142
H   6.637   2.084   24.862
H   11.877   2.021   24.243
H   11.169   2.723   22.874
H   11.598   1.069   21.653
H   10.635   -0.077   22.702
H   12.307   0.198   23.071
H   12.588   -0.807   27.014
H   11.733   -1.715   28.338
H   13.359   -1.065   28.505
H   12.362   2.437   32.378
H   11.570   0.990   36.479
H   11.069   -0.456   35.522
H   10.003   0.966   35.723
H   11.552   3.484   38.085
H   9.855   3.258   38.269
H   10.024   5.930   38.811
H   12.485   3.417   39.818
H   11.964   3.659   41.577
H   13.362   4.517   40.860
H   11.526   7.294   40.614
H   11.956   6.356   41.946
H   10.021   6.785   42.934
H   9.202   5.841   41.682
H   8.147   7.707   41.051
H   9.564   8.376   40.382
H   10.195   9.002   42.863
H   7.980   7.797   43.724
H   7.124   9.218   43.247
H   8.385   9.252   44.501
H   8.102   10.945   42.211
H   8.891   10.589   40.742
H   10.716   11.797   41.239
H   11.064   10.758   42.615
H   8.840   12.481   43.184
H   10.232   13.399   42.520
H   11.427   11.818   44.390
H   10.808   14.634   43.991
H   12.361   13.911   44.534
H   11.280   14.317   45.724
H   8.777   11.536   45.007
H   9.063   12.917   45.931
H   11.240   11.417   46.673
H   10.175   10.145   45.978
H   8.786   11.892   47.817
H   10.254   11.206   48.671
H   9.308   8.981   47.813
H   6.976   8.660   47.529
H   7.341   9.974   46.423
H   6.628   10.447   47.906
H   8.329   10.440   50.077
H   9.484   9.028   49.890
H   7.723   8.711   49.769
