140
26
Mg   25.372   51.473   26.314
C   23.257   52.463   28.916
C   27.578   50.211   28.690
C   27.586   50.974   23.874
C   23.277   53.158   24.152
N   25.461   51.495   28.497
C   24.545   51.928   29.389
C   24.928   51.504   30.780
C   26.345   50.953   30.680
C   26.437   50.829   29.219
C   27.515   51.820   31.348
C   23.950   50.485   31.502
C   23.382   50.956   32.838
C   24.309   51.618   33.998
O   24.755   52.786   34.061
O   24.525   50.671   34.974
N   27.274   50.618   26.225
C   27.980   50.128   27.305
C   29.119   49.421   26.800
C   29.123   49.671   25.395
C   27.961   50.462   25.083
C   30.161   48.747   27.677
C   30.144   49.075   24.303
O   29.959   49.304   23.120
C   31.169   48.057   24.717
N   25.325   51.926   24.271
C   26.413   51.655   23.507
C   26.232   52.232   22.038
C   24.736   52.844   22.111
C   24.387   52.602   23.643
C   27.340   53.267   21.682
C   23.578   52.265   21.242
C   23.397   50.711   21.340
N   23.548   52.587   26.441
C   22.843   53.222   25.512
C   21.699   53.857   26.101
C   21.816   53.563   27.448
C   22.966   52.786   27.623
C   20.624   54.645   25.424
C   21.262   53.923   28.726
O   20.216   54.476   28.994
C   22.186   53.104   29.719
C   22.636   54.000   30.727
O   23.468   54.874   30.547
O   21.765   54.013   31.736
C   22.204   54.926   32.814
C   25.189   51.164   36.182
C   25.190   50.039   37.209
C   24.856   50.157   38.540
C   24.423   51.359   39.265
C   24.815   48.897   39.375
C   26.158   48.447   39.923
C   26.865   47.307   39.093
C   27.231   46.148   39.997
C   28.348   45.212   39.430
C   25.915   45.293   40.224
C   25.840   44.659   41.609
C   24.986   45.526   42.542
C   25.918   46.094   43.739
C   25.600   45.318   44.994
C   25.804   47.635   43.931
C   27.086   48.445   43.620
C   27.225   49.621   44.737
C   27.952   50.868   44.205
C   29.277   50.619   43.456
C   28.229   51.939   45.290
H   28.225   49.724   29.422
H   28.214   50.820   22.994
H   22.593   53.690   23.487
H   25.136   52.382   31.392
H   26.486   49.944   31.069
H   28.025   52.252   30.487
H   28.127   51.092   31.880
H   27.145   52.571   32.046
H   24.335   49.471   31.607
H   23.165   50.345   30.759
H   23.007   50.104   33.405
H   22.589   51.687   32.676
H   30.336   47.683   27.512
H   29.942   48.849   28.740
H   31.073   49.339   27.601
H   31.996   48.428   25.323
H   31.642   47.706   23.800
H   30.658   47.185   25.125
H   26.490   51.406   21.375
H   24.695   53.932   22.069
H   26.973   54.177   21.207
H   27.914   52.758   20.908
H   27.968   53.609   22.505
H   23.980   52.491   20.255
H   22.718   52.897   21.467
H   23.304   50.315   20.329
H   22.453   50.458   21.823
H   24.130   50.205   21.968
H   19.585   54.318   25.481
H   20.765   54.686   24.344
H   20.728   55.635   25.868
H   21.611   52.390   30.309
H   22.188   56.000   32.633
H   23.265   54.792   33.024
H   21.786   54.758   33.807
H   24.512   51.916   36.588
H   26.239   51.378   35.985
H   25.276   49.040   36.781
H   25.033   51.697   40.103
H   23.447   51.132   39.696
H   24.492   52.211   38.589
H   24.339   48.147   38.744
H   24.108   48.961   40.203
H   25.911   48.107   40.929
H   26.712   49.377   40.052
H   27.771   47.679   38.613
H   26.282   46.860   38.288
H   27.557   46.709   40.873
H   29.012   44.828   40.206
H   28.976   45.667   38.664
H   27.912   44.291   39.042
H   25.699   44.488   39.521
H   25.063   45.946   40.037
H   26.799   44.373   42.042
H   25.326   43.712   41.448
H   24.049   45.050   42.829
H   24.584   46.395   42.023
H   26.938   45.845   43.445
H   25.322   45.892   45.877
H   26.468   44.721   45.275
H   24.933   44.460   44.914
H   25.412   47.793   44.936
H   24.966   48.047   43.368
H   27.075   48.769   42.579
H   27.996   47.868   43.782
H   27.598   49.258   45.694
H   26.233   50.040   44.911
H   27.244   51.309   43.503
H   29.167   51.093   42.481
H   29.630   49.596   43.326
H   30.021   51.172   44.030
H   28.123   52.938   44.867
H   29.232   51.809   45.696
H   27.596   51.775   46.162
