140
9
Mg   52.748   23.903   44.762
C   49.778   25.858   44.012
C   51.119   21.105   43.860
C   55.674   22.368   44.766
C   54.239   26.930   45.569
N   50.643   23.625   43.839
C   49.584   24.476   43.735
C   48.238   23.672   43.472
C   48.670   22.195   43.642
C   50.224   22.258   43.865
C   47.999   21.407   44.798
C   47.665   24.000   42.107
C   48.696   23.815   40.879
C   48.037   23.257   39.542
O   47.371   22.252   39.494
O   48.362   24.000   38.437
N   53.368   22.010   44.279
C   52.573   20.984   43.895
C   53.322   19.768   43.720
C   54.743   20.138   43.889
C   54.702   21.538   44.342
C   52.629   18.522   43.286
C   55.950   19.187   43.709
O   55.734   18.000   43.508
C   57.377   19.589   43.794
N   54.739   24.588   45.151
C   55.801   23.752   45.045
C   57.096   24.526   45.131
C   56.684   26.009   45.507
C   55.130   25.889   45.373
C   58.179   23.859   46.087
C   57.225   27.173   44.580
C   58.255   28.204   45.131
N   52.160   25.937   44.965
C   52.850   27.028   45.386
C   52.048   28.262   45.487
C   50.803   27.792   44.939
C   50.949   26.373   44.595
C   52.423   29.595   45.913
C   49.517   28.232   44.579
O   48.954   29.346   44.622
C   48.754   26.968   43.997
C   48.352   27.331   42.583
O   49.131   27.310   41.595
O   47.014   27.688   42.508
C   46.522   27.884   41.189
C   47.701   23.618   37.257
C   48.788   22.692   36.643
C   48.629   21.365   36.410
C   47.189   20.684   36.502
C   49.844   20.596   35.929
C   50.108   20.077   34.487
C   51.625   19.982   34.235
C   52.323   18.668   34.725
C   53.511   18.934   35.722
C   52.822   17.846   33.553
C   51.834   16.653   33.176
C   52.460   15.280   33.161
C   52.020   14.520   31.867
C   51.250   13.222   32.264
C   53.230   14.172   30.978
C   53.128   14.736   29.621
C   52.506   13.846   28.616
C   53.455   13.134   27.641
C   53.235   13.504   26.124
C   53.509   11.580   27.815
H   50.592   20.149   43.893
H   56.680   21.959   44.651
H   54.713   27.890   45.787
H   47.527   23.888   44.270
H   48.398   21.642   42.743
H   48.661   20.623   45.165
H   47.121   20.928   44.365
H   47.759   22.099   45.605
H   47.009   24.869   42.066
H   46.870   23.261   42.013
H   49.431   23.045   41.110
H   49.217   24.758   40.709
H   51.555   18.609   43.123
H   52.800   17.709   43.992
H   53.078   18.126   42.376
H   57.594   20.284   42.983
H   57.942   18.673   43.621
H   57.670   20.002   44.759
H   57.569   24.642   44.156
H   56.918   26.091   46.568
H   57.858   22.884   46.453
H   58.464   24.471   46.943
H   59.014   23.779   45.391
H   56.392   27.780   44.222
H   57.658   26.757   43.670
H   58.877   27.720   45.885
H   57.749   29.112   45.459
H   58.711   28.538   44.199
H   52.793   30.319   45.187
H   53.069   29.417   46.772
H   51.496   29.991   46.328
H   47.891   26.726   44.617
H   46.799   27.176   40.408
H   46.917   28.831   40.822
H   45.437   27.955   41.262
H   47.547   24.490   36.622
H   46.726   23.161   37.430
H   49.720   23.237   36.493
H   46.501   21.052   37.264
H   47.218   19.598   36.585
H   46.721   20.767   35.522
H   49.860   19.710   36.564
H   50.730   21.072   36.349
H   49.743   20.745   33.707
H   49.714   19.073   34.330
H   52.076   20.857   34.704
H   51.824   20.039   33.165
H   51.591   18.244   35.412
H   53.117   19.207   36.701
H   54.028   19.836   35.392
H   54.211   18.115   35.886
H   53.847   17.476   33.530
H   53.022   18.408   32.641
H   51.629   16.828   32.120
H   50.978   16.682   33.850
H   51.952   14.779   33.985
H   53.522   15.342   33.400
H   51.292   15.102   31.302
H   51.342   12.433   31.517
H   50.180   13.418   32.333
H   51.582   12.881   33.245
H   53.342   13.090   30.917
H   54.098   14.673   31.408
H   54.126   15.066   29.333
H   52.623   15.701   29.649
H   51.621   14.261   28.134
H   51.959   13.040   29.105
H   54.469   13.453   27.881
H   54.183   13.556   25.586
H   52.887   14.536   26.078
H   52.561   12.796   25.643
H   54.545   11.251   27.883
H   53.091   11.041   26.964
H   52.942   11.322   28.709
