140
28
Mg   -8.505   18.752   43.121
C   -5.010   18.478   43.039
C   -8.119   22.195   42.241
C   -11.896   19.075   42.641
C   -8.857   15.344   42.696
N   -6.750   20.087   42.514
C   -5.382   19.747   42.667
C   -4.504   20.896   42.338
C   -5.500   22.151   42.512
C   -6.929   21.446   42.462
C   -5.235   23.131   43.685
C   -3.706   20.822   41.007
C   -4.223   19.687   39.970
C   -3.920   19.733   38.505
O   -3.089   18.968   37.986
O   -4.569   20.755   37.845
N   -9.837   20.385   42.589
C   -9.453   21.682   42.212
C   -10.686   22.432   41.881
C   -11.776   21.533   42.074
C   -11.160   20.264   42.436
C   -10.579   23.894   41.559
C   -13.204   22.091   41.961
O   -13.462   23.210   41.545
C   -14.306   21.298   42.496
N   -10.105   17.382   42.747
C   -11.463   17.751   42.704
C   -12.391   16.564   42.634
C   -11.382   15.317   42.377
C   -10.021   16.033   42.702
C   -13.508   16.396   43.650
C   -11.483   14.632   40.939
C   -12.328   13.436   40.883
N   -7.292   17.205   43.178
C   -7.571   15.813   43.017
C   -6.325   15.112   43.135
C   -5.329   16.095   43.270
C   -5.949   17.373   43.194
C   -6.214   13.628   43.077
C   -3.926   16.322   43.437
O   -3.014   15.524   43.528
C   -3.670   17.856   43.459
C   -3.129   18.302   44.772
O   -2.084   18.898   44.788
O   -3.958   17.962   45.833
C   -3.416   18.556   47.071
C   -4.110   21.088   36.468
C   -5.302   21.067   35.483
C   -5.839   19.883   35.046
C   -5.517   18.485   35.469
C   -6.715   19.896   33.763
C   -8.183   19.235   33.731
C   -9.004   19.725   32.552
C   -10.354   20.316   32.944
C   -11.292   19.150   33.426
C   -10.932   21.216   31.838
C   -10.640   22.724   32.038
C   -9.974   23.524   30.833
C   -10.815   24.613   30.110
C   -10.529   26.098   30.611
C   -10.794   24.498   28.537
C   -12.101   25.075   27.850
C   -12.791   23.973   27.037
C   -13.979   23.293   27.825
C   -13.520   21.905   28.289
C   -15.401   23.271   27.251
H   -8.090   23.276   42.086
H   -12.977   19.183   42.530
H   -8.810   14.254   42.652
H   -3.737   20.916   43.112
H   -5.483   22.804   41.639
H   -4.378   22.707   44.210
H   -6.088   23.088   44.363
H   -5.145   24.155   43.323
H   -2.633   20.720   41.169
H   -3.744   21.728   40.402
H   -5.308   19.718   39.864
H   -3.919   18.705   40.334
H   -9.930   23.991   40.689
H   -10.168   24.379   42.445
H   -11.445   24.458   41.214
H   -13.987   20.714   43.360
H   -14.737   20.677   41.711
H   -15.152   21.944   42.731
H   -12.877   16.658   41.663
H   -11.623   14.538   43.100
H   -14.486   16.247   43.192
H   -13.569   17.131   44.452
H   -13.196   15.438   44.065
H   -10.530   14.326   40.508
H   -11.949   15.365   40.281
H   -13.338   13.796   40.682
H   -12.349   12.935   41.850
H   -12.039   12.720   40.114
H   -5.217   13.244   42.861
H   -6.841   13.199   42.296
H   -6.442   13.160   44.035
H   -2.912   18.138   42.729
H   -3.995   18.123   47.887
H   -3.608   19.628   47.021
H   -2.339   18.396   47.102
H   -3.244   20.581   36.044
H   -3.760   22.120   36.496
H   -5.583   22.030   35.057
H   -4.933   18.043   34.661
H   -6.424   17.888   35.378
H   -5.000   18.395   36.424
H   -6.127   19.423   32.976
H   -6.630   20.931   33.431
H   -8.688   19.524   34.652
H   -8.040   18.155   33.749
H   -9.216   18.831   31.965
H   -8.441   20.427   31.937
H   -10.344   20.856   33.891
H   -10.836   18.185   33.204
H   -12.288   19.157   32.983
H   -11.394   19.276   34.504
H   -11.994   20.984   31.749
H   -10.474   20.918   30.895
H   -10.006   22.678   32.924
H   -11.517   23.341   32.231
H   -9.693   22.828   30.043
H   -9.120   24.076   31.225
H   -11.804   24.424   30.526
H   -10.351   26.786   29.786
H   -9.768   26.141   31.390
H   -11.384   26.489   31.162
H   -10.699   23.438   28.303
H   -9.984   25.112   28.143
H   -11.782   25.956   27.293
H   -12.831   25.549   28.506
H   -12.024   23.323   26.617
H   -13.276   24.592   26.282
H   -14.200   23.780   28.774
H   -14.090   21.620   29.173
H   -12.447   21.864   28.475
H   -13.840   21.167   27.553
H   -15.819   22.270   27.141
H   -15.509   23.753   26.279
H   -16.066   23.775   27.953
