140
19
Mg   46.226   44.233   43.514
C   42.972   43.426   43.540
C   47.132   40.997   42.641
C   49.353   45.380   42.505
C   45.435   47.628   44.162
N   45.133   42.480   43.022
C   43.826   42.306   43.171
C   43.395   40.919   42.802
C   44.716   40.118   42.864
C   45.788   41.272   42.858
C   44.910   39.073   44.076
C   42.390   40.824   41.548
C   42.761   41.837   40.397
C   42.308   41.619   38.952
O   41.737   40.660   38.532
O   42.641   42.744   38.159
N   47.975   43.312   42.788
C   48.137   42.021   42.554
C   49.489   41.753   42.032
C   50.193   42.969   42.128
C   49.172   44.011   42.445
C   49.969   40.352   41.564
C   51.691   43.202   41.969
O   52.498   42.316   41.776
C   52.383   44.545   41.974
N   47.195   46.302   43.156
C   48.492   46.452   42.792
C   48.936   47.974   42.779
C   47.748   48.707   43.501
C   46.762   47.481   43.705
C   50.291   48.209   43.471
C   47.168   50.027   42.775
C   47.132   51.356   43.545
N   44.549   45.346   43.947
C   44.340   46.662   44.175
C   42.892   46.896   44.433
C   42.345   45.616   44.193
C   43.376   44.721   43.880
C   42.290   48.270   44.676
C   41.160   44.883   44.148
O   40.013   45.285   44.324
C   41.445   43.359   43.744
C   41.028   42.577   44.930
O   40.236   41.596   44.874
O   41.745   42.950   46.078
C   41.203   42.467   47.343
C   42.270   42.684   36.751
C   43.339   43.211   35.813
C   44.204   42.426   35.090
C   44.475   40.965   35.367
C   45.317   43.112   34.305
C   44.872   43.142   32.800
C   45.055   44.479   32.089
C   45.611   44.163   30.601
C   46.663   45.223   30.112
C   44.448   44.172   29.638
C   44.258   42.815   28.769
C   43.540   43.215   27.412
C   44.524   43.683   26.281
C   44.375   45.133   25.952
C   44.426   42.763   24.961
C   45.720   41.855   24.773
C   46.589   42.351   23.598
C   47.002   43.865   23.573
C   46.434   44.634   22.344
C   48.470   44.195   23.740
H   47.364   39.939   42.502
H   50.277   45.548   41.946
H   45.187   48.674   44.353
H   42.763   40.610   43.636
H   44.863   39.522   41.964
H   45.735   39.295   44.752
H   45.045   38.074   43.663
H   43.930   38.987   44.545
H   41.326   40.730   41.765
H   42.459   39.861   41.042
H   43.838   41.981   40.485
H   42.186   42.741   40.596
H   49.958   39.679   42.421
H   50.983   40.516   41.197
H   49.355   40.043   40.719
H   52.017   45.145   42.807
H   52.082   45.114   41.095
H   53.472   44.498   42.010
H   48.823   48.184   41.716
H   48.162   48.971   44.475
H   50.578   47.341   44.063
H   50.377   49.182   43.955
H   51.143   48.209   42.791
H   46.142   49.855   42.449
H   47.806   50.242   41.918
H   47.509   52.161   42.914
H   47.754   51.263   44.436
H   46.112   51.668   43.770
H   42.163   48.743   43.702
H   42.848   49.006   45.255
H   41.307   48.109   45.118
H   40.937   43.020   42.841
H   41.859   42.833   48.133
H   41.093   41.382   47.336
H   40.209   42.858   47.561
H   41.255   43.078   36.808
H   42.070   41.687   36.359
H   43.212   44.254   35.521
H   45.206   40.648   36.110
H   44.603   40.460   34.409
H   43.534   40.518   35.689
H   46.311   42.679   34.418
H   45.503   44.137   34.626
H   43.807   42.911   32.818
H   45.436   42.323   32.353
H   45.840   45.083   32.543
H   44.126   45.048   32.131
H   46.132   43.206   30.626
H   47.613   44.691   30.172
H   46.667   46.102   30.757
H   46.544   45.510   29.067
H   44.513   45.005   28.937
H   43.581   44.460   30.232
H   43.684   42.038   29.274
H   45.197   42.339   28.489
H   42.782   43.962   27.648
H   43.096   42.283   27.061
H   45.564   43.686   26.609
H   44.066   45.336   24.927
H   45.347   45.582   26.159
H   43.704   45.719   26.579
H   44.132   43.369   24.104
H   43.644   42.029   25.156
H   45.355   40.858   24.526
H   46.381   41.822   25.638
H   46.228   41.956   22.648
H   47.519   41.802   23.748
H   46.527   44.253   24.475
H   45.942   44.008   21.599
H   47.282   45.107   21.850
H   45.753   45.421   22.669
H   49.133   43.950   22.910
H   48.785   43.628   24.615
H   48.507   45.234   24.066
