140
36
Mg   47.907   15.895   28.879
C   45.579   15.482   31.376
C   49.492   18.206   30.641
C   49.860   16.441   26.100
C   45.683   14.025   26.637
N   47.463   16.825   30.771
C   46.632   16.336   31.750
C   46.921   17.012   33.099
C   48.016   18.112   32.721
C   48.327   17.767   31.279
C   47.644   19.592   32.771
C   47.412   15.926   34.130
C   47.502   16.374   35.614
C   48.615   15.888   36.561
O   49.320   14.830   36.485
O   48.724   16.825   37.603
N   49.467   17.128   28.435
C   50.006   18.009   29.310
C   51.263   18.497   28.803
C   51.505   17.824   27.597
C   50.303   17.078   27.322
C   52.194   19.414   29.597
C   52.700   17.836   26.602
O   52.711   17.281   25.534
C   53.891   18.640   27.038
N   47.738   15.433   26.607
C   48.749   15.634   25.777
C   48.577   14.911   24.400
C   47.239   14.275   24.540
C   46.889   14.534   26.029
C   48.694   15.808   23.125
C   47.156   12.749   24.274
C   47.927   11.815   25.187
N   46.017   14.834   28.941
C   45.217   14.190   28.006
C   43.932   13.708   28.687
C   44.143   14.115   30.026
C   45.363   14.806   30.149
C   42.910   12.817   28.104
C   43.621   14.036   31.389
O   42.666   13.461   31.865
C   44.488   14.972   32.271
C   43.548   15.969   32.865
O   43.393   17.085   32.425
O   43.111   15.603   34.084
C   42.346   16.561   34.900
C   49.883   16.595   38.505
C   49.974   17.832   39.371
C   51.064   18.316   39.941
C   52.462   17.652   39.830
C   50.926   19.688   40.604
C   52.055   20.687   40.218
C   51.652   21.999   39.648
C   52.951   22.858   39.255
C   53.404   23.855   40.396
C   52.712   23.679   37.950
C   53.865   23.718   36.939
C   53.616   24.399   35.583
C   54.125   23.549   34.366
C   55.684   23.574   34.324
C   53.365   24.040   33.106
C   52.010   23.361   32.983
C   51.627   22.789   31.589
C   50.547   23.577   30.789
C   50.108   22.877   29.489
C   51.006   25.025   30.538
H   50.028   18.900   31.291
H   50.520   16.464   25.230
H   45.075   13.478   25.913
H   46.014   17.462   33.501
H   48.891   18.073   33.370
H   46.645   19.633   33.204
H   47.625   20.167   31.846
H   48.287   20.214   33.394
H   48.404   15.691   33.743
H   46.753   15.059   34.166
H   46.521   16.188   36.052
H   47.594   17.454   35.491
H   53.213   19.025   29.619
H   51.940   19.730   30.609
H   52.238   20.388   29.110
H   54.535   18.945   26.212
H   54.482   17.992   27.686
H   53.706   19.571   27.573
H   49.350   14.163   24.227
H   46.429   14.754   23.990
H   49.192   16.754   23.340
H   47.759   16.066   22.628
H   49.333   15.338   22.377
H   47.534   12.431   23.302
H   46.115   12.425   24.309
H   47.242   11.068   25.588
H   48.371   12.466   25.940
H   48.704   11.290   24.633
H   43.291   12.332   27.205
H   42.105   13.482   27.791
H   42.533   12.076   28.809
H   44.990   14.397   33.049
H   41.656   17.027   34.196
H   42.977   17.292   35.405
H   41.676   16.063   35.600
H   50.785   16.492   37.901
H   49.612   15.694   39.055
H   49.057   18.421   39.360
H   53.104   17.733   40.706
H   52.996   18.085   38.984
H   52.294   16.576   39.869
H   51.060   19.492   41.668
H   50.007   20.173   40.274
H   52.881   20.209   39.692
H   52.696   20.930   41.065
H   51.142   22.690   40.319
H   50.896   21.851   38.877
H   53.900   22.340   39.114
H   53.558   23.193   41.249
H   52.635   24.587   40.642
H   54.318   24.403   40.167
H   52.643   24.716   38.278
H   51.767   23.429   37.467
H   54.323   22.729   36.929
H   54.656   24.264   37.454
H   54.227   25.298   35.505
H   52.573   24.681   35.436
H   53.864   22.516   34.594
H   56.212   22.636   34.501
H   56.131   24.347   34.949
H   55.959   23.760   33.285
H   53.991   23.972   32.216
H   53.256   25.121   33.192
H   51.195   24.061   33.168
H   51.839   22.553   33.693
H   51.111   21.867   31.860
H   52.502   22.433   31.045
H   49.732   23.662   31.507
H   50.562   21.892   29.387
H   50.331   23.445   28.585
H   49.033   22.716   29.409
H   52.084   24.982   30.694
H   50.498   25.627   31.292
H   50.795   25.459   29.561
