140
8
Mg   46.415   34.945   28.372
C   44.860   32.833   30.634
C   46.579   37.343   30.772
C   47.307   37.097   25.934
C   45.728   32.521   25.875
N   45.740   35.032   30.420
C   45.336   34.019   31.189
C   45.319   34.446   32.768
C   45.451   36.025   32.618
C   45.941   36.153   31.152
C   44.116   36.768   32.916
C   46.597   33.829   33.265
C   47.015   34.034   34.745
C   46.027   34.757   35.628
O   44.860   34.429   35.753
O   46.689   35.771   36.325
N   46.950   36.924   28.394
C   47.068   37.705   29.479
C   47.535   38.996   29.075
C   47.716   39.006   27.679
C   47.267   37.658   27.245
C   47.848   40.068   30.110
C   48.267   40.137   26.685
O   48.422   39.990   25.464
C   48.728   41.493   27.254
N   46.496   34.847   26.264
C   46.990   35.858   25.456
C   46.936   35.558   23.986
C   46.304   34.119   24.004
C   46.219   33.776   25.456
C   46.210   36.593   23.026
C   47.235   33.105   23.191
C   46.554   32.303   22.021
N   45.606   32.981   28.289
C   45.422   32.076   27.234
C   44.799   30.858   27.712
C   44.545   31.117   29.071
C   45.125   32.412   29.342
C   44.510   29.693   26.867
C   43.953   30.596   30.199
O   43.402   29.514   30.445
C   43.943   31.742   31.215
C   44.410   31.255   32.570
O   45.418   30.631   32.873
O   43.337   31.606   33.431
C   43.497   31.420   34.872
C   45.873   36.644   37.183
C   46.798   37.757   37.530
C   46.432   38.883   38.260
C   45.069   39.341   38.755
C   47.515   39.870   38.667
C   47.547   41.171   37.696
C   48.970   41.763   37.632
C   48.956   43.218   37.546
C   50.160   43.765   36.843
C   48.884   43.928   38.912
C   48.142   45.313   38.815
C   46.796   45.237   39.540
C   45.986   46.470   39.252
C   46.763   47.844   39.230
C   44.682   46.541   40.064
C   43.524   46.480   39.203
C   42.763   45.191   39.078
C   41.375   45.494   38.456
C   40.197   45.274   39.445
C   41.102   44.793   37.101
H   46.565   38.199   31.449
H   47.663   37.766   25.147
H   45.517   31.863   25.030
H   44.384   34.157   33.249
H   46.312   36.429   33.150
H   43.326   36.020   32.979
H   43.820   37.497   32.161
H   44.197   37.202   33.912
H   47.420   34.312   32.738
H   46.656   32.775   32.993
H   47.976   34.538   34.844
H   47.165   33.109   35.302
H   48.731   40.634   29.814
H   48.188   39.748   31.095
H   47.127   40.860   30.310
H   49.652   41.259   27.783
H   48.010   41.819   28.006
H   48.755   42.154   26.388
H   47.993   35.541   23.720
H   45.319   34.119   23.539
H   45.706   37.342   23.638
H   45.457   36.249   22.318
H   47.002   37.093   22.469
H   47.459   32.262   23.844
H   48.095   33.650   22.802
H   47.047   32.653   21.114
H   45.478   32.437   22.133
H   46.742   31.239   22.165
H   44.450   29.962   25.812
H   43.547   29.268   27.151
H   45.350   29.000   26.906
H   42.972   32.219   31.349
H   42.970   30.565   35.295
H   43.097   32.248   35.457
H   44.566   31.358   35.074
H   45.717   36.124   38.128
H   44.950   36.861   36.646
H   47.843   37.638   37.244
H   45.090   39.309   39.844
H   44.332   38.584   38.487
H   44.736   40.316   38.399
H   48.396   39.228   38.700
H   47.411   40.234   39.689
H   46.935   41.973   38.108
H   47.178   40.944   36.696
H   49.537   41.313   36.817
H   49.342   41.545   38.633
H   48.094   43.633   37.023
H   51.064   43.621   37.435
H   50.026   44.843   36.745
H   50.272   43.229   35.901
H   49.900   44.071   39.278
H   48.338   43.389   39.686
H   48.059   45.715   37.805
H   48.743   46.019   39.386
H   46.953   45.205   40.618
H   46.248   44.338   39.258
H   45.704   46.392   38.203
H   46.070   48.534   39.713
H   47.212   48.204   38.304
H   47.615   47.746   39.903
H   44.524   47.395   40.723
H   44.686   45.666   40.714
H   43.782   46.762   38.182
H   42.758   47.189   39.519
H   42.736   44.832   40.107
H   43.449   44.593   38.477
H   41.320   46.569   38.286
H   39.300   45.385   38.836
H   40.269   46.009   40.246
H   40.162   44.269   39.865
H   42.012   44.462   36.600
H   40.675   45.526   36.418
H   40.421   43.955   37.250
