140
11
Mg   40.466   8.468   29.026
C   42.131   9.824   31.823
C   38.272   6.931   31.179
C   38.872   7.074   26.419
C   43.042   9.568   26.929
N   40.228   8.552   31.198
C   40.931   9.116   32.176
C   40.408   8.904   33.612
C   39.364   7.735   33.266
C   39.314   7.702   31.758
C   39.741   6.393   33.845
C   39.695   10.213   34.266
C   39.760   10.231   35.796
C   40.526   11.444   36.384
O   40.483   12.654   36.049
O   41.056   11.065   37.600
N   38.675   7.290   28.784
C   37.944   6.717   29.854
C   36.724   6.188   29.287
C   36.855   6.235   27.902
C   38.164   6.903   27.619
C   35.646   5.494   30.098
C   35.921   5.813   26.791
O   36.218   6.027   25.652
C   34.586   5.196   27.066
N   40.972   8.157   27.008
C   40.111   7.613   26.100
C   40.785   7.773   24.709
C   41.708   8.973   24.823
C   41.980   8.925   26.345
C   41.613   6.526   24.402
C   41.128   10.251   24.341
C   39.733   10.632   24.771
N   42.225   9.515   29.255
C   43.189   9.892   28.339
C   44.242   10.642   29.041
C   43.840   10.650   30.388
C   42.651   9.977   30.461
C   45.462   11.198   28.444
C   44.099   11.199   31.692
O   45.015   11.973   32.098
C   42.938   10.679   32.665
C   43.616   9.871   33.741
O   44.435   9.033   33.505
O   43.175   10.125   35.068
C   43.601   9.114   36.083
C   41.613   12.115   38.426
C   40.519   12.385   39.521
C   40.648   12.745   40.750
C   41.955   13.080   41.480
C   39.353   12.816   41.504
C   38.641   11.407   41.759
C   39.265   10.583   42.948
C   38.377   10.375   44.205
C   38.949   9.306   45.107
C   36.940   10.104   43.903
C   35.999   11.230   44.435
C   34.985   11.951   43.445
C   33.633   12.283   44.010
C   32.567   12.386   42.853
C   33.606   13.517   44.931
C   33.080   13.203   46.342
C   33.963   13.731   47.481
C   34.751   12.667   48.265
C   33.867   12.135   49.357
C   36.101   13.224   48.798
H   37.597   6.393   31.847
H   38.442   6.554   25.560
H   43.783   10.087   26.317
H   41.235   8.652   34.277
H   38.429   8.084   33.706
H   39.166   6.289   34.765
H   40.818   6.268   33.959
H   39.278   5.678   33.165
H   38.642   10.240   33.984
H   40.123   11.128   33.856
H   40.221   9.265   36.003
H   38.772   10.157   36.250
H   35.823   5.830   31.119
H   35.938   4.446   30.037
H   34.641   5.771   29.779
H   34.061   6.073   27.445
H   34.591   4.427   27.838
H   34.149   4.811   26.144
H   40.099   7.868   23.868
H   42.634   8.905   24.253
H   42.696   6.552   24.523
H   41.401   6.243   23.371
H   41.234   5.712   25.021
H   41.175   10.335   23.255
H   41.807   11.008   24.733
H   39.854   11.493   25.429
H   39.057   9.958   25.298
H   39.198   10.996   23.894
H   46.114   10.368   28.172
H   45.854   11.853   29.222
H   45.247   11.726   27.514
H   42.431   11.587   32.992
H   44.642   9.275   36.363
H   43.484   8.085   35.740
H   43.104   9.171   37.051
H   41.859   13.055   37.933
H   42.532   11.809   38.926
H   39.529   12.076   39.186
H   42.280   12.106   41.847
H   41.949   13.855   42.247
H   42.753   13.227   40.752
H   38.813   13.553   40.911
H   39.653   13.350   42.406
H   38.551   10.816   40.847
H   37.655   11.693   42.126
H   40.053   11.243   43.311
H   39.698   9.606   42.732
H   38.479   11.288   44.792
H   39.137   8.377   44.569
H   38.233   9.024   45.879
H   39.798   9.722   45.649
H   36.711   9.175   44.425
H   36.623   9.885   42.884
H   36.553   12.059   44.876
H   35.340   10.767   45.170
H   34.937   11.324   42.555
H   35.525   12.861   43.182
H   33.397   11.418   44.630
H   32.495   11.442   42.312
H   32.964   13.134   42.166
H   31.553   12.566   43.209
H   33.005   14.326   44.515
H   34.546   14.054   45.059
H   32.896   12.156   46.585
H   32.124   13.688   46.540
H   33.257   14.220   48.152
H   34.611   14.514   47.086
H   35.058   11.796   47.686
H   34.407   11.258   49.713
H   32.965   11.725   48.901
H   33.695   12.802   50.202
H   36.853   12.991   48.044
H   36.389   12.670   49.692
H   36.033   14.300   48.956
