140
12
Mg   16.351   52.674   25.253
C   18.173   51.408   27.987
C   13.714   53.279   27.410
C   14.448   53.318   22.589
C   18.809   51.330   23.050
N   16.010   52.400   27.403
C   17.004   52.107   28.377
C   16.523   52.358   29.764
C   15.030   52.797   29.520
C   14.927   52.899   27.991
C   13.880   51.777   29.965
C   17.350   53.293   30.500
C   17.635   53.168   31.944
C   16.636   52.432   32.874
O   16.816   51.380   33.464
O   15.434   53.167   33.055
N   14.391   53.405   24.987
C   13.453   53.487   26.004
C   12.248   53.852   25.455
C   12.406   53.948   24.058
C   13.794   53.620   23.772
C   11.073   54.410   26.369
C   11.346   54.289   22.968
O   11.667   54.364   21.776
C   9.793   54.327   23.295
N   16.571   52.364   23.120
C   15.720   52.942   22.261
C   16.287   52.982   20.830
C   17.687   52.329   21.013
C   17.707   52.012   22.475
C   15.355   52.395   19.775
C   18.875   53.225   20.570
C   20.037   52.406   19.916
N   18.160   51.640   25.434
C   19.053   51.145   24.481
C   20.198   50.454   25.145
C   19.872   50.528   26.524
C   18.613   51.243   26.643
C   21.460   49.972   24.503
C   20.362   50.259   27.845
O   21.394   49.655   28.211
C   19.233   50.744   28.803
C   18.774   49.551   29.446
O   18.340   48.476   28.924
O   18.864   49.626   30.777
C   18.170   48.600   31.602
C   14.478   52.543   34.065
C   13.159   53.278   33.884
C   12.053   53.341   34.722
C   12.065   52.721   36.040
C   10.795   54.140   34.410
C   10.815   55.494   35.089
C   9.457   55.730   35.748
C   8.883   57.162   35.355
C   9.968   58.200   35.693
C   7.681   57.476   36.295
C   6.543   56.446   36.362
C   5.272   57.184   36.892
C   4.134   57.423   35.827
C   4.191   58.824   35.113
C   2.758   57.259   36.560
C   1.550   56.965   35.696
C   0.990   55.536   35.935
C   -0.419   55.579   36.651
C   -0.537   54.536   37.781
C   -1.567   55.415   35.611
H   12.782   53.255   27.980
H   13.888   53.506   21.671
H   19.557   50.944   22.354
H   16.483   51.386   30.255
H   14.853   53.724   30.066
H   14.233   51.224   30.836
H   13.661   51.161   29.093
H   12.934   52.243   30.238
H   17.089   54.351   30.467
H   18.292   53.272   29.952
H   17.861   54.114   32.437
H   18.539   52.560   31.996
H   11.344   54.508   27.420
H   10.359   53.587   26.346
H   10.621   55.374   26.136
H   9.421   55.103   23.963
H   9.539   53.406   23.820
H   9.232   54.251   22.364
H   16.379   54.054   20.654
H   17.736   51.408   20.431
H   15.845   51.659   19.137
H   14.868   53.141   19.147
H   14.546   51.959   20.360
H   19.208   53.990   21.271
H   18.522   53.902   19.793
H   20.147   52.831   18.918
H   19.802   51.347   19.803
H   20.965   52.430   20.487
H   21.141   49.345   23.670
H   22.053   49.473   25.269
H   22.004   50.769   23.995
H   19.671   51.491   29.466
H   17.946   49.021   32.583
H   18.762   47.686   31.640
H   17.161   48.298   31.321
H   14.982   52.586   35.030
H   14.281   51.506   33.793
H   13.064   53.732   32.898
H   11.602   53.385   36.770
H   13.108   52.669   36.351
H   11.535   51.772   35.954
H   9.927   53.513   34.618
H   10.806   54.303   33.333
H   10.991   56.301   34.377
H   11.655   55.512   35.783
H   9.574   55.706   36.832
H   8.752   54.947   35.467
H   8.541   57.132   34.320
H   10.795   57.930   36.349
H   9.618   59.112   36.177
H   10.522   58.513   34.807
H   7.140   58.381   36.020
H   7.946   57.625   37.341
H   6.827   55.645   37.044
H   6.425   56.005   35.373
H   5.561   58.139   37.331
H   4.983   56.663   37.805
H   4.111   56.683   35.028
H   4.682   59.578   35.729
H   3.141   59.028   34.905
H   4.813   58.767   34.219
H   2.492   58.109   37.189
H   2.931   56.490   37.313
H   1.650   57.019   34.612
H   0.828   57.756   35.902
H   1.690   54.908   36.486
H   0.855   55.125   34.934
H   -0.589   56.574   37.063
H   0.269   53.814   37.655
H   -1.467   53.970   37.840
H   -0.407   54.935   38.788
H   -1.789   54.351   35.531
H   -1.249   55.941   34.711
H   -2.415   56.048   35.873
