140
33
Mg   9.070   3.785   27.866
C   10.427   2.083   30.754
C   7.582   6.044   29.952
C   7.207   4.686   25.236
C   10.245   0.970   25.916
N   8.832   3.825   30.116
C   9.543   3.152   31.085
C   9.452   3.847   32.453
C   8.287   4.921   32.213
C   8.256   4.932   30.666
C   6.877   4.594   32.788
C   10.816   4.537   32.943
C   11.262   4.020   34.295
C   10.213   3.731   35.385
O   9.033   4.122   35.470
O   10.784   2.894   36.333
N   7.689   5.187   27.618
C   7.323   6.143   28.533
C   6.445   7.160   27.906
C   6.266   6.721   26.564
C   7.027   5.458   26.422
C   5.892   8.334   28.639
C   5.381   7.352   25.466
O   5.192   6.789   24.373
C   4.853   8.641   25.659
N   8.669   2.905   25.935
C   7.989   3.605   24.965
C   8.084   3.058   23.583
C   9.201   1.919   23.798
C   9.383   1.894   25.316
C   6.761   2.531   22.973
C   10.602   2.294   23.121
C   11.397   3.352   23.891
N   10.288   2.005   28.165
C   10.618   0.904   27.306
C   11.383   -0.087   28.043
C   11.398   0.429   29.355
C   10.681   1.632   29.397
C   11.808   -1.351   27.504
C   11.840   0.093   30.712
O   12.442   -0.833   31.252
C   11.347   1.286   31.682
C   10.595   0.602   32.791
O   9.414   0.271   32.689
O   11.306   0.412   34.000
C   10.507   -0.222   35.136
C   10.007   2.671   37.550
C   10.409   3.515   38.683
C   10.886   3.110   39.846
C   11.094   1.710   40.232
C   11.113   4.155   40.915
C   9.834   4.844   41.357
C   9.518   6.219   40.735
C   9.216   7.341   41.823
C   7.668   7.488   41.973
C   9.784   8.684   41.395
C   10.289   9.506   42.665
C   9.697   10.918   42.876
C   9.961   11.469   44.314
C   10.595   12.829   44.260
C   8.675   11.443   45.161
C   8.963   10.849   46.580
C   7.850   9.812   46.970
C   8.365   8.302   46.885
C   7.912   7.728   45.565
C   7.725   7.534   48.034
H   7.141   6.755   30.653
H   6.824   5.245   24.379
H   10.546   0.190   25.214
H   9.167   3.084   33.178
H   8.641   5.858   32.644
H   6.407   5.509   33.149
H   6.940   3.849   33.581
H   6.235   4.184   32.008
H   11.002   5.611   32.943
H   11.596   4.200   32.261
H   11.851   4.761   34.836
H   11.933   3.197   34.046
H   6.300   8.453   29.643
H   4.826   8.129   28.732
H   6.095   9.245   28.077
H   5.805   9.169   25.728
H   4.200   8.792   26.518
H   4.264   8.951   24.796
H   8.451   3.689   22.773
H   8.958   0.968   23.325
H   5.902   2.577   23.642
H   6.870   1.454   22.853
H   6.509   3.041   22.043
H   10.459   2.606   22.086
H   11.134   1.348   23.225
H   10.711   4.064   24.351
H   12.014   3.949   23.219
H   11.927   2.798   24.666
H   12.839   -1.322   27.153
H   11.245   -1.622   26.611
H   11.782   -2.133   28.264
H   12.242   1.786   32.053
H   11.226   -0.358   35.943
H   10.096   -1.177   34.810
H   9.717   0.461   35.450
H   9.916   1.629   37.856
H   8.959   2.950   37.435
H   10.222   4.584   38.588
H   10.469   1.544   41.110
H   12.107   1.531   40.592
H   10.784   0.954   39.512
H   11.683   4.918   40.385
H   11.829   3.817   41.665
H   9.908   4.904   42.443
H   9.002   4.201   41.070
H   8.602   6.135   40.150
H   10.241   6.584   40.006
H   9.564   7.009   42.801
H   7.503   6.975   42.920
H   7.041   7.174   41.139
H   7.440   8.519   42.243
H   9.020   9.184   40.800
H   10.660   8.668   40.747
H   11.374   9.511   42.556
H   10.053   8.947   43.570
H   8.616   10.900   42.736
H   10.182   11.582   42.160
H   10.739   10.862   44.776
H   11.683   12.770   44.221
H   10.319   13.324   45.191
H   10.249   13.379   43.385
H   7.944   10.781   44.697
H   8.209   12.428   45.122
H   9.125   11.595   47.358
H   9.875   10.251   46.568
H   6.965   9.899   46.339
H   7.500   10.091   47.963
H   9.449   8.199   46.838
H   8.719   7.378   44.921
H   7.263   8.416   45.024
H   7.333   6.814   45.697
H   7.355   6.521   47.872
H   6.894   8.081   48.480
H   8.459   7.396   48.828
