140
12
Mg   23.661   -6.625   46.472
C   26.163   -4.460   45.363
C   21.336   -5.079   44.257
C   21.684   -9.343   46.558
C   26.269   -8.491   48.017
N   23.709   -4.883   45.094
C   24.928   -4.166   44.775
C   24.590   -3.190   43.646
C   23.044   -3.252   43.402
C   22.644   -4.552   44.286
C   22.195   -2.031   43.904
C   25.438   -3.411   42.396
C   25.526   -2.082   41.576
C   24.450   -1.975   40.472
O   23.266   -1.781   40.654
O   24.974   -2.101   39.163
N   21.673   -7.064   45.698
C   20.871   -6.280   44.895
C   19.616   -6.944   44.793
C   19.659   -8.148   45.354
C   21.061   -8.230   45.900
C   18.465   -6.362   43.975
C   18.589   -9.085   45.364
O   17.429   -8.790   45.133
C   18.842   -10.549   45.720
N   23.971   -8.655   47.229
C   23.002   -9.559   47.146
C   23.338   -10.921   47.730
C   24.881   -10.673   48.150
C   25.042   -9.177   47.814
C   22.329   -11.256   48.887
C   26.021   -11.508   47.420
C   27.097   -12.009   48.353
N   25.755   -6.384   46.853
C   26.667   -7.157   47.521
C   27.935   -6.502   47.521
C   27.751   -5.443   46.736
C   26.450   -5.418   46.280
C   29.198   -7.058   48.147
C   28.509   -4.365   46.023
O   29.677   -4.007   46.028
C   27.483   -3.714   45.091
C   27.488   -2.192   45.281
O   27.529   -1.434   44.333
O   27.210   -1.746   46.579
C   26.736   -0.344   46.626
C   24.016   -1.719   38.118
C   23.444   -3.007   37.510
C   23.994   -3.914   36.656
C   25.349   -3.731   36.090
C   23.146   -5.112   36.202
C   22.609   -5.095   34.824
C   22.311   -6.476   34.181
C   22.995   -6.646   32.797
C   22.674   -7.974   32.038
C   24.582   -6.766   33.100
C   25.473   -6.302   31.897
C   25.325   -4.793   31.490
C   24.498   -4.585   30.109
C   23.265   -3.696   30.406
C   25.387   -3.962   28.999
C   25.939   -5.012   28.032
C   25.675   -4.572   26.496
C   24.650   -5.513   25.759
C   25.182   -5.774   24.371
C   23.255   -4.816   25.781
H   20.562   -4.678   43.598
H   21.137   -10.284   46.470
H   27.068   -9.017   48.544
H   24.913   -2.262   44.117
H   22.706   -3.545   42.408
H   22.770   -1.389   44.571
H   21.401   -2.378   44.566
H   21.664   -1.564   43.074
H   24.779   -4.086   41.851
H   26.324   -4.005   42.619
H   26.521   -1.970   41.147
H   25.269   -1.245   42.225
H   18.424   -6.856   43.004
H   18.799   -5.337   43.813
H   17.460   -6.239   44.380
H   19.119   -10.577   46.774
H   19.700   -11.013   45.234
H   17.959   -11.117   45.426
H   23.241   -11.749   47.028
H   24.859   -10.696   49.239
H   21.387   -10.709   48.938
H   22.921   -11.181   49.799
H   22.107   -12.323   48.899
H   26.602   -10.957   46.680
H   25.679   -12.418   46.926
H   28.083   -11.643   48.067
H   27.221   -13.090   48.291
H   26.887   -11.687   49.373
H   29.073   -7.042   49.229
H   30.017   -6.415   47.823
H   29.354   -8.081   47.806
H   27.794   -3.944   44.072
H   26.247   0.089   45.754
H   27.617   0.237   46.898
H   26.025   -0.345   47.453
H   24.627   -1.201   37.379
H   23.222   -1.068   38.484
H   22.402   -3.170   37.786
H   25.518   -2.770   35.604
H   25.506   -4.458   35.292
H   26.268   -3.837   36.667
H   22.316   -5.135   36.907
H   23.682   -6.055   36.304
H   23.265   -4.426   34.268
H   21.683   -4.524   34.888
H   21.245   -6.685   34.098
H   22.564   -7.359   34.768
H   22.686   -5.778   32.216
H   23.618   -8.456   31.784
H   22.181   -7.792   31.083
H   22.044   -8.625   32.643
H   24.877   -7.776   33.385
H   24.911   -6.307   34.032
H   25.324   -6.927   31.018
H   26.455   -6.366   32.365
H   26.346   -4.492   31.253
H   24.951   -4.235   32.348
H   24.077   -5.512   29.721
H   23.122   -3.490   31.466
H   22.388   -4.157   29.951
H   23.395   -2.725   29.929
H   26.299   -3.565   29.446
H   24.853   -3.204   28.426
H   25.506   -6.009   28.109
H   27.005   -5.098   28.242
H   26.700   -4.522   26.126
H   25.438   -3.510   26.438
H   24.581   -6.479   26.258
H   25.791   -4.924   24.062
H   24.341   -5.882   23.685
H   25.720   -6.721   24.342
H   22.854   -4.598   24.791
H   23.228   -3.860   26.303
H   22.571   -5.381   26.414
