140
26
Mg   45.663   25.295   28.273
C   46.176   27.455   30.983
C   45.089   22.707   30.477
C   45.605   23.278   25.716
C   46.593   27.844   26.109
N   45.528   25.162   30.462
C   45.748   26.195   31.384
C   45.647   25.685   32.793
C   45.769   24.107   32.607
C   45.440   23.960   31.117
C   47.132   23.404   32.853
C   44.336   26.127   33.557
C   44.354   27.316   34.495
C   43.743   27.106   35.835
O   42.623   27.384   36.179
O   44.751   26.651   36.761
N   45.215   23.283   28.102
C   44.943   22.364   29.113
C   44.538   21.102   28.525
C   44.731   21.201   27.124
C   45.203   22.596   26.931
C   43.923   20.070   29.380
C   44.502   20.201   26.064
O   44.501   20.522   24.842
C   44.250   18.773   26.399
N   45.932   25.560   26.254
C   45.922   24.570   25.362
C   46.144   25.002   23.888
C   46.231   26.499   24.020
C   46.246   26.646   25.552
C   47.217   24.303   23.045
C   45.221   27.437   23.361
C   43.822   27.432   23.891
N   46.374   27.250   28.418
C   46.763   28.167   27.477
C   47.165   29.370   28.084
C   46.934   29.185   29.500
C   46.462   27.859   29.645
C   47.443   30.648   27.485
C   47.025   29.755   30.794
O   47.304   30.911   31.138
C   46.595   28.669   31.780
C   47.732   28.351   32.686
O   48.528   27.468   32.521
O   47.676   29.045   33.791
C   48.617   28.783   34.903
C   44.415   26.988   38.194
C   44.539   25.828   39.199
C   44.144   25.756   40.462
C   43.360   26.842   41.185
C   44.286   24.414   41.306
C   43.285   23.428   40.697
C   42.849   22.398   41.749
C   41.306   22.300   41.991
C   40.645   21.554   40.752
C   40.590   23.641   42.379
C   39.334   23.332   43.252
C   39.215   24.074   44.607
C   39.561   23.105   45.811
C   38.258   22.928   46.699
C   40.677   23.776   46.662
C   41.813   22.784   46.866
C   43.044   23.432   47.555
C   44.426   23.004   47.032
C   45.514   23.371   48.018
C   44.700   23.737   45.697
H   44.843   21.950   31.225
H   45.641   22.609   24.854
H   46.809   28.641   25.395
H   46.535   25.920   33.380
H   44.950   23.643   33.158
H   47.877   24.125   33.190
H   47.630   23.034   31.956
H   46.993   22.613   33.589
H   44.026   25.253   34.130
H   43.591   26.310   32.782
H   43.744   28.127   34.098
H   45.402   27.580   34.641
H   43.652   20.441   30.369
H   44.578   19.214   29.539
H   42.954   19.777   28.976
H   43.319   18.680   26.958
H   45.089   18.366   26.964
H   44.169   18.172   25.493
H   45.238   24.791   23.320
H   47.189   26.872   23.658
H   47.852   24.881   22.373
H   46.573   23.655   22.451
H   47.766   23.564   23.627
H   45.090   27.182   22.309
H   45.644   28.441   23.341
H   43.078   27.247   23.116
H   43.735   28.346   24.479
H   43.676   26.586   24.563
H   47.601   30.626   26.406
H   48.372   31.030   27.909
H   46.580   31.288   27.667
H   45.792   28.883   32.486
H   48.135   28.130   35.630
H   48.833   29.684   35.477
H   49.594   28.409   34.594
H   43.456   27.497   38.296
H   45.210   27.648   38.541
H   45.034   24.936   38.814
H   42.276   26.799   41.072
H   43.533   27.884   40.915
H   43.504   26.672   42.252
H   43.978   24.581   42.338
H   45.296   24.081   41.065
H   43.853   22.945   39.901
H   42.485   24.028   40.264
H   43.278   22.568   42.737
H   43.151   21.390   41.466
H   41.225   21.619   42.838
H   39.561   21.629   40.665
H   40.903   20.495   40.740
H   40.991   21.917   39.784
H   40.410   24.081   41.398
H   41.410   24.233   42.785
H   39.290   22.252   43.391
H   38.538   23.717   42.614
H   38.265   24.578   44.785
H   39.989   24.838   44.529
H   39.779   22.084   45.501
H   38.574   22.045   47.254
H   37.345   22.778   46.122
H   38.066   23.805   47.316
H   40.171   24.165   47.546
H   41.074   24.682   46.205
H   42.081   22.306   45.923
H   41.405   21.919   47.389
H   42.878   23.291   48.623
H   43.077   24.519   47.476
H   44.309   21.965   46.723
H   45.285   22.888   48.967
H   45.427   24.435   48.235
H   46.513   23.073   47.696
H   45.677   24.219   45.670
H   43.938   24.467   45.421
H   44.745   22.959   44.935
