140
25
Mg   16.100   52.165   25.868
C   17.957   51.011   28.731
C   13.449   52.859   28.100
C   14.419   53.015   23.151
C   18.757   50.850   23.906
N   15.750   51.885   28.189
C   16.718   51.575   29.114
C   16.303   51.894   30.488
C   14.698   52.076   30.306
C   14.628   52.293   28.831
C   13.757   50.879   30.754
C   16.930   53.212   30.964
C   16.947   53.245   32.527
C   16.181   52.220   33.362
O   16.710   51.281   33.959
O   14.806   52.457   33.356
N   14.166   52.844   25.638
C   13.267   53.079   26.678
C   12.147   53.712   26.100
C   12.396   53.887   24.679
C   13.674   53.271   24.412
C   10.980   54.238   26.947
C   11.609   54.636   23.646
O   11.926   54.731   22.469
C   10.285   55.268   24.044
N   16.553   52.075   23.858
C   15.627   52.464   22.898
C   16.278   52.226   21.440
C   17.653   51.674   21.807
C   17.696   51.551   23.278
C   15.416   51.337   20.531
C   18.813   52.525   21.272
C   18.945   52.393   19.741
N   17.997   51.216   26.185
C   18.889   50.651   25.313
C   20.054   50.055   26.013
C   19.737   50.248   27.341
C   18.433   50.830   27.428
C   21.342   49.458   25.392
C   20.102   50.010   28.689
O   21.049   49.328   29.130
C   19.000   50.527   29.669
C   18.537   49.481   30.642
O   17.528   48.845   30.592
O   19.333   49.417   31.760
C   19.048   48.419   32.900
C   14.041   51.528   34.224
C   12.597   52.133   34.440
C   11.680   51.596   35.261
C   11.743   50.437   36.174
C   10.338   52.335   35.074
C   10.042   53.416   36.177
C   10.132   54.915   35.647
C   8.812   55.537   35.583
C   8.699   56.669   34.575
C   8.432   56.158   36.934
C   6.915   56.092   37.135
C   6.326   57.043   38.183
C   5.048   57.925   37.712
C   5.237   59.474   37.784
C   3.901   57.612   38.664
C   2.527   57.786   37.964
C   1.375   57.653   38.929
C   0.063   58.245   38.415
C   -0.872   58.642   39.578
C   -0.663   57.288   37.342
H   12.576   53.082   28.718
H   14.006   53.365   22.203
H   19.562   50.330   23.382
H   16.329   51.040   31.166
H   14.292   52.949   30.817
H   12.895   50.769   30.096
H   13.268   51.246   31.657
H   14.374   49.981   30.785
H   16.308   54.038   30.621
H   17.976   53.273   30.663
H   16.674   54.257   32.826
H   17.982   53.111   32.842
H   10.017   54.174   26.440
H   11.195   55.241   27.315
H   10.914   53.728   27.907
H   10.042   55.950   23.229
H   10.425   55.873   24.940
H   9.471   54.576   24.260
H   16.514   53.172   20.953
H   17.636   50.674   21.375
H   15.558   51.712   19.518
H   14.385   51.346   20.886
H   15.671   50.281   20.439
H   19.611   51.976   21.771
H   18.620   53.523   21.665
H   18.084   51.809   19.417
H   19.807   51.847   19.357
H   19.067   53.343   19.219
H   21.202   48.377   25.377
H   22.134   49.644   26.118
H   21.448   49.876   24.391
H   19.492   51.284   30.281
H   19.673   47.548   32.704
H   18.074   47.952   33.045
H   19.408   48.861   33.829
H   14.449   51.462   35.233
H   13.905   50.529   33.810
H   12.275   53.033   33.917
H   10.743   50.085   36.427
H   12.284   50.792   37.051
H   12.309   49.661   35.659
H   9.607   51.548   35.255
H   10.169   52.675   34.052
H   10.769   53.158   36.947
H   9.058   53.091   36.518
H   10.671   55.004   34.704
H   10.763   55.427   36.374
H   8.087   54.811   35.215
H   8.425   57.617   35.038
H   7.867   56.440   33.909
H   9.621   56.825   34.016
H   8.794   57.177   37.069
H   8.781   55.462   37.697
H   6.599   55.163   37.609
H   6.419   56.224   36.173
H   7.065   57.751   38.557
H   6.072   56.437   39.053
H   4.817   57.733   36.664
H   4.491   60.064   38.317
H   5.329   60.022   36.847
H   6.218   59.777   38.149
H   3.963   57.966   39.693
H   3.875   56.525   38.745
H   2.364   57.109   37.126
H   2.357   58.736   37.457
H   1.646   58.193   39.837
H   1.257   56.603   39.197
H   0.334   59.172   37.910
H   -1.882   58.248   39.463
H   -1.002   59.712   39.741
H   -0.524   58.291   40.550
H   -1.442   56.625   37.716
H   0.125   56.832   36.743
H   -1.217   57.969   36.695
