140
18
Mg   47.153   15.278   27.354
C   45.404   14.903   30.346
C   49.198   17.550   28.877
C   48.616   15.879   24.358
C   44.494   13.635   25.703
N   47.298   16.039   29.398
C   46.615   15.692   30.457
C   47.140   16.398   31.772
C   48.172   17.392   31.215
C   48.235   16.980   29.751
C   47.836   18.859   31.611
C   47.616   15.465   32.999
C   47.398   16.044   34.404
C   48.629   15.638   35.334
O   49.014   14.503   35.551
O   49.099   16.681   36.011
N   48.684   16.472   26.661
C   49.429   17.257   27.464
C   50.450   17.968   26.681
C   50.393   17.470   25.337
C   49.196   16.566   25.396
C   51.366   19.005   27.301
C   51.080   17.943   23.983
O   50.732   17.426   22.931
C   52.280   18.924   23.940
N   46.601   14.796   25.381
C   47.541   15.019   24.322
C   46.897   14.594   22.990
C   45.598   13.751   23.446
C   45.556   14.080   24.926
C   46.463   15.710   22.077
C   45.679   12.224   23.147
C   46.671   11.440   24.008
N   45.256   14.375   27.864
C   44.373   13.719   27.116
C   43.388   13.194   27.954
C   43.707   13.605   29.251
C   44.867   14.344   29.122
C   42.361   12.284   27.551
C   43.377   13.471   30.666
O   42.522   12.853   31.255
C   44.409   14.455   31.448
C   43.720   15.582   32.165
O   43.887   16.738   31.855
O   42.934   15.129   33.161
C   42.300   16.239   33.896
C   49.965   16.380   37.098
C   50.125   17.659   37.900
C   51.108   18.582   37.848
C   52.412   18.412   37.014
C   51.006   19.817   38.819
C   52.272   20.598   39.178
C   52.679   21.685   38.135
C   54.223   21.946   38.034
C   54.728   22.587   39.367
C   54.602   22.758   36.785
C   54.893   21.902   35.534
C   56.405   22.032   35.006
C   56.391   22.429   33.518
C   57.787   22.087   32.845
C   56.128   24.004   33.408
C   55.468   24.438   32.060
C   54.276   25.444   32.287
C   52.957   24.566   32.074
C   52.387   24.783   30.645
C   52.010   24.915   33.251
H   49.791   18.274   29.438
H   49.098   15.740   23.388
H   43.778   12.983   25.199
H   46.358   17.061   32.141
H   49.126   17.102   31.656
H   47.850   19.414   30.673
H   48.476   19.187   32.430
H   46.819   19.021   31.970
H   48.659   15.186   32.850
H   46.954   14.604   33.095
H   46.444   15.763   34.851
H   47.335   17.131   34.360
H   52.310   19.173   26.782
H   51.552   18.858   28.365
H   50.757   19.908   27.265
H   52.784   18.959   22.974
H   52.960   18.727   24.769
H   51.936   19.894   24.297
H   47.677   13.986   22.532
H   44.694   14.118   22.960
H   45.459   15.624   21.661
H   47.202   15.663   21.277
H   46.527   16.705   22.516
H   46.107   12.001   22.170
H   44.652   11.868   23.230
H   47.374   10.879   23.391
H   46.184   10.819   24.760
H   47.269   11.998   24.728
H   42.082   11.625   28.373
H   42.789   11.654   26.771
H   41.503   12.893   27.265
H   44.925   13.789   32.140
H   41.726   15.832   34.728
H   41.546   16.710   33.266
H   43.011   16.950   34.316
H   50.930   15.936   36.854
H   49.448   15.668   37.741
H   49.280   17.856   38.559
H   52.260   17.656   36.244
H   53.214   18.108   37.687
H   52.795   19.299   36.510
H   50.507   19.544   39.749
H   50.351   20.485   38.260
H   53.091   19.919   39.417
H   52.229   21.282   40.025
H   52.189   22.605   38.457
H   52.239   21.499   37.155
H   54.688   20.978   37.847
H   55.118   23.591   39.202
H   55.551   21.948   39.689
H   53.921   22.562   40.099
H   55.362   23.532   36.897
H   53.773   23.427   36.557
H   54.269   22.076   34.658
H   54.865   20.829   35.726
H   56.805   21.018   35.035
H   57.121   22.665   35.530
H   55.644   21.811   33.020
H   57.578   21.374   32.048
H   58.531   21.588   33.467
H   58.312   22.946   32.427
H   57.035   24.606   33.465
H   55.632   24.350   34.315
H   55.165   23.580   31.460
H   56.203   24.940   31.430
H   54.243   26.189   31.492
H   54.297   25.966   33.243
H   53.072   23.492   32.218
H   51.448   25.327   30.752
H   52.224   23.819   30.164
H   53.084   25.332   30.012
H   51.033   24.438   33.169
H   51.858   25.994   33.285
H   52.340   24.565   34.229
