140
26
Mg   9.178   49.258   24.741
C   7.052   49.436   27.304
C   11.774   50.125   26.775
C   11.264   49.190   22.017
C   6.370   49.072   22.402
N   9.375   49.671   26.802
C   8.370   49.583   27.722
C   8.799   49.881   29.141
C   10.221   50.508   28.879
C   10.532   50.026   27.403
C   10.202   52.094   28.939
C   8.950   48.612   30.074
C   8.302   48.711   31.458
C   8.287   47.399   32.292
O   8.620   46.293   31.890
O   7.701   47.619   33.536
N   11.231   49.389   24.445
C   12.094   49.780   25.447
C   13.437   49.695   24.913
C   13.333   49.347   23.565
C   11.881   49.341   23.285
C   14.728   49.894   25.802
C   14.441   48.929   22.621
O   14.094   48.480   21.537
C   15.930   48.946   23.009
N   8.790   49.249   22.530
C   9.871   49.137   21.711
C   9.470   48.850   20.254
C   7.916   48.545   20.402
C   7.647   49.063   21.846
C   9.874   49.936   19.265
C   7.595   47.035   20.158
C   6.344   46.902   19.297
N   7.092   49.383   24.781
C   6.064   49.190   23.798
C   4.847   49.118   24.493
C   5.133   49.213   25.898
C   6.527   49.330   25.970
C   3.461   49.234   23.802
C   4.489   49.299   27.226
O   3.377   49.203   27.620
C   5.749   49.398   28.193
C   5.597   48.273   29.090
O   5.913   47.133   28.796
O   4.857   48.587   30.153
C   4.653   47.654   31.222
C   7.651   46.489   34.467
C   8.385   46.679   35.771
C   7.980   46.479   37.051
C   6.604   46.116   37.606
C   9.075   46.485   38.154
C   9.245   47.822   38.788
C   10.796   48.305   38.911
C   11.220   48.276   40.417
C   11.055   49.643   40.999
C   12.654   47.594   40.613
C   12.451   46.043   40.751
C   12.541   45.571   42.239
C   13.796   44.827   42.583
C   14.148   45.099   44.112
C   13.934   43.296   42.290
C   15.346   42.906   41.827
C   15.637   41.418   42.027
C   15.237   40.690   40.689
C   14.870   39.188   40.930
C   16.268   40.838   39.623
H   12.622   50.566   27.301
H   11.942   49.045   21.173
H   5.524   48.863   21.744
H   8.129   50.624   29.573
H   10.996   50.146   29.555
H   10.525   52.349   27.930
H   11.045   52.417   29.551
H   9.271   52.538   29.293
H   10.000   48.403   30.283
H   8.649   47.801   29.410
H   7.347   49.220   31.327
H   8.799   49.453   32.084
H   14.523   49.732   26.860
H   15.120   50.879   25.550
H   15.491   49.158   25.548
H   16.271   48.075   23.569
H   16.134   49.813   23.637
H   16.576   49.077   22.142
H   9.969   47.948   19.899
H   7.296   49.231   19.824
H   9.067   50.102   18.551
H   10.788   49.590   18.782
H   9.968   50.878   19.805
H   7.437   46.502   21.095
H   8.393   46.448   19.702
H   5.959   47.831   18.876
H   5.566   46.288   19.750
H   6.765   46.411   18.420
H   2.996   48.261   23.637
H   3.590   49.776   22.865
H   2.802   49.787   24.471
H   5.672   50.315   28.777
H   4.864   48.096   32.196
H   5.246   46.749   31.089
H   3.609   47.342   31.246
H   8.045   45.554   34.069
H   6.576   46.385   34.619
H   9.461   46.829   35.676
H   5.820   46.210   36.854
H   6.344   46.705   38.485
H   6.653   45.054   37.848
H   10.034   46.132   37.777
H   8.803   45.743   38.904
H   8.617   47.743   39.676
H   8.784   48.467   38.039
H   10.776   49.307   38.482
H   11.545   47.770   38.327
H   10.525   47.657   40.985
H   12.029   49.982   41.352
H   10.465   49.631   41.915
H   10.459   50.315   40.381
H   12.947   48.024   41.571
H   13.390   47.707   39.816
H   13.164   45.546   40.093
H   11.475   45.778   40.344
H   11.719   44.893   42.467
H   12.287   46.397   42.904
H   14.616   45.405   42.158
H   13.227   44.929   44.671
H   14.531   46.101   44.301
H   14.961   44.429   44.392
H   13.300   43.109   41.423
H   13.641   42.746   43.184
H   16.105   43.466   42.374
H   15.380   43.208   40.781
H   15.062   40.893   42.789
H   16.715   41.326   42.157
H   14.363   41.197   40.280
H   15.506   38.585   40.282
H   13.800   38.984   40.888
H   15.187   38.948   41.945
H   16.699   39.918   39.229
H   17.153   41.375   39.966
H   15.786   41.504   38.907
