140
37
Mg   17.970   -1.859   27.603
C   17.189   0.230   30.320
C   19.886   -3.773   29.705
C   18.940   -3.541   24.925
C   16.083   0.458   25.548
N   18.427   -1.765   29.807
C   17.981   -0.831   30.671
C   18.414   -1.174   32.062
C   19.491   -2.305   31.958
C   19.331   -2.610   30.400
C   20.931   -2.081   32.301
C   17.201   -1.703   32.954
C   17.080   -1.108   34.386
C   18.314   -0.433   35.043
O   18.362   0.647   35.590
O   19.327   -1.378   35.093
N   19.224   -3.497   27.371
C   19.797   -4.194   28.346
C   20.402   -5.417   27.757
C   20.302   -5.254   26.387
C   19.493   -4.067   26.148
C   21.007   -6.368   28.682
C   20.799   -6.238   25.236
O   20.662   -5.981   24.046
C   21.455   -7.553   25.466
N   17.554   -1.591   25.572
C   18.123   -2.369   24.637
C   17.679   -1.972   23.231
C   16.575   -0.859   23.508
C   16.754   -0.628   25.016
C   18.802   -1.561   22.314
C   15.138   -1.144   23.030
C   14.556   -0.107   22.035
N   16.895   -0.056   27.833
C   16.127   0.719   26.933
C   15.455   1.851   27.567
C   15.917   1.711   28.908
C   16.741   0.551   29.033
C   14.614   3.011   27.018
C   15.789   2.165   30.226
O   15.238   3.170   30.582
C   16.487   1.258   31.211
C   17.455   1.997   32.062
O   18.461   2.573   31.619
O   16.829   2.262   33.260
C   17.525   3.285   34.056
C   20.486   -1.119   36.027
C   20.105   -1.417   37.467
C   21.057   -1.393   38.454
C   22.456   -0.754   38.297
C   20.650   -1.889   39.802
C   21.577   -2.989   40.350
C   20.832   -4.415   40.386
C   21.755   -5.633   40.202
C   20.950   -6.887   39.900
C   22.656   -5.940   41.384
C   23.847   -6.852   40.966
C   23.935   -8.214   41.748
C   25.301   -8.830   41.723
C   25.284   -9.967   40.715
C   25.759   -9.303   43.155
C   27.276   -9.707   43.253
C   28.057   -8.801   44.186
C   28.461   -9.509   45.509
C   29.459   -8.659   46.289
C   27.264   -9.877   46.385
H   20.601   -4.332   30.313
H   19.320   -4.040   24.031
H   15.427   1.027   24.884
H   18.825   -0.301   32.569
H   19.096   -3.201   32.436
H   21.560   -2.074   31.411
H   21.203   -2.943   32.911
H   20.922   -1.209   32.954
H   17.295   -2.780   33.097
H   16.203   -1.571   32.537
H   16.639   -1.783   35.119
H   16.260   -0.392   34.431
H   22.075   -6.158   28.741
H   20.794   -7.377   28.330
H   20.483   -6.269   29.632
H   22.371   -7.430   26.044
H   21.681   -7.944   24.474
H   20.760   -8.215   25.983
H   17.242   -2.828   22.716
H   16.900   0.070   23.040
H   18.756   -0.481   22.174
H   18.690   -2.087   21.366
H   19.772   -1.838   22.726
H   14.404   -1.230   23.832
H   15.283   -2.136   22.603
H   15.082   -0.429   21.136
H   14.933   0.907   22.163
H   13.469   -0.142   21.957
H   14.575   3.052   25.930
H   15.018   3.885   27.529
H   13.585   2.920   27.367
H   15.725   0.758   31.808
H   16.974   4.224   34.113
H   18.560   3.530   33.816
H   17.567   2.869   35.062
H   20.696   -0.064   35.848
H   21.413   -1.593   35.705
H   19.190   -1.986   37.632
H   23.219   -1.480   38.016
H   22.659   -0.415   39.313
H   22.574   0.106   37.638
H   19.608   -2.194   39.714
H   20.658   -1.071   40.522
H   21.849   -2.730   41.374
H   22.526   -3.186   39.851
H   19.945   -4.525   39.763
H   20.546   -4.375   41.437
H   22.331   -5.387   39.310
H   19.885   -6.754   40.089
H   21.218   -7.708   40.565
H   21.215   -7.295   38.925
H   22.113   -6.339   42.241
H   22.965   -4.945   41.702
H   24.784   -6.297   41.001
H   23.790   -7.051   39.896
H   23.140   -8.871   41.394
H   23.714   -7.879   42.762
H   26.084   -8.197   41.306
H   24.766   -10.861   41.063
H   26.324   -10.253   40.557
H   24.757   -9.705   39.798
H   25.132   -10.130   43.488
H   25.521   -8.550   43.906
H   27.802   -9.607   42.303
H   27.389   -10.759   43.514
H   27.540   -7.870   44.419
H   28.935   -8.555   43.588
H   28.968   -10.369   45.071
H   29.370   -8.893   47.350
H   29.337   -7.590   46.114
H   30.482   -8.837   45.960
H   27.428   -9.695   47.448
H   27.049   -10.935   46.238
H   26.297   -9.414   46.189
