140
10
Mg   -8.989   18.079   42.984
C   -5.585   17.738   42.846
C   -8.620   21.477   42.381
C   -12.319   18.351   42.744
C   -9.257   14.539   42.968
N   -7.272   19.451   42.478
C   -5.972   19.070   42.675
C   -5.091   20.299   42.286
C   -6.078   21.532   42.395
C   -7.428   20.795   42.422
C   -5.898   22.422   43.680
C   -4.471   20.097   40.888
C   -5.247   19.335   39.822
C   -4.746   19.495   38.331
O   -3.758   18.962   37.867
O   -5.467   20.427   37.665
N   -10.319   19.681   42.615
C   -9.975   20.981   42.480
C   -11.138   21.832   42.471
C   -12.253   20.978   42.548
C   -11.717   19.606   42.601
C   -11.083   23.322   42.399
C   -13.772   21.459   42.553
O   -13.948   22.673   42.469
C   -14.902   20.502   42.641
N   -10.508   16.667   42.520
C   -11.769   17.025   42.818
C   -12.689   15.883   43.020
C   -11.698   14.704   43.155
C   -10.432   15.295   42.806
C   -13.760   16.085   44.182
C   -12.133   13.521   42.269
C   -12.400   12.198   42.867
N   -7.693   16.416   42.843
C   -7.912   15.013   43.023
C   -6.687   14.359   43.198
C   -5.672   15.395   43.183
C   -6.407   16.577   42.911
C   -6.513   12.863   43.371
C   -4.291   15.718   43.216
O   -3.283   15.071   43.375
C   -4.155   17.243   43.009
C   -3.340   17.870   44.077
O   -2.098   18.084   43.969
O   -4.076   18.145   45.188
C   -3.672   19.064   46.229
C   -5.280   20.579   36.191
C   -6.569   20.295   35.497
C   -6.904   19.085   34.933
C   -5.918   17.866   34.972
C   -8.139   19.006   34.052
C   -9.206   18.002   34.542
C   -9.393   16.917   33.486
C   -10.914   16.823   33.124
C   -11.211   15.342   32.907
C   -11.276   17.728   31.989
C   -12.721   18.283   32.131
C   -12.824   19.770   32.432
C   -13.375   20.524   31.126
C   -14.932   20.812   31.262
C   -12.453   21.778   30.840
C   -12.669   22.307   29.380
C   -12.764   23.855   29.324
C   -11.332   24.384   29.059
C   -10.894   25.664   29.916
C   -11.262   24.721   27.507
H   -8.516   22.560   42.476
H   -13.409   18.322   42.806
H   -9.234   13.467   43.175
H   -4.198   20.402   42.904
H   -5.890   22.104   41.487
H   -5.204   21.935   44.365
H   -6.819   22.410   44.262
H   -5.611   23.460   43.510
H   -3.503   19.610   41.004
H   -4.325   21.072   40.422
H   -6.300   19.613   39.867
H   -5.111   18.286   40.086
H   -10.231   23.642   41.800
H   -11.000   23.889   43.326
H   -11.886   23.826   41.860
H   -15.201   20.196   43.644
H   -14.745   19.633   42.002
H   -15.814   20.828   42.142
H   -13.283   15.752   42.115
H   -11.705   14.339   44.182
H   -13.859   17.061   44.658
H   -13.585   15.427   45.033
H   -14.728   15.768   43.793
H   -11.330   13.303   41.565
H   -12.940   13.627   41.544
H   -11.986   12.313   43.869
H   -11.876   11.323   42.483
H   -13.454   12.031   43.092
H   -5.473   12.578   43.211
H   -7.104   12.416   42.572
H   -6.793   12.403   44.319
H   -3.604   17.319   42.071
H   -3.056   19.881   45.853
H   -3.149   18.552   47.037
H   -4.569   19.579   46.575
H   -4.439   20.174   35.629
H   -5.183   21.639   35.951
H   -7.273   21.091   35.257
H   -5.020   18.136   35.527
H   -5.850   17.523   33.940
H   -6.409   16.981   35.376
H   -7.840   18.837   33.017
H   -8.540   20.011   33.924
H   -10.080   18.606   34.785
H   -8.735   17.655   35.461
H   -9.007   15.986   33.900
H   -8.773   17.113   32.611
H   -11.520   17.182   33.956
H   -10.525   14.627   33.361
H   -11.240   15.143   31.836
H   -12.189   15.146   33.347
H   -11.216   17.212   31.030
H   -10.606   18.572   31.826
H   -13.211   17.850   33.003
H   -13.251   17.921   31.250
H   -11.866   20.210   32.710
H   -13.640   19.808   33.154
H   -13.260   19.884   30.251
H   -15.401   20.432   32.169
H   -15.351   20.317   30.386
H   -15.094   21.875   31.084
H   -11.404   21.538   31.012
H   -12.709   22.530   31.586
H   -13.607   21.901   29.002
H   -11.797   22.086   28.764
H   -13.025   24.254   30.304
H   -13.476   24.204   28.576
H   -10.554   23.650   29.270
H   -10.524   26.463   29.274
H   -10.165   25.325   30.652
H   -11.777   26.019   30.448
H   -10.398   24.181   27.117
H   -11.332   25.789   27.300
H   -12.029   24.255   26.888
