140
36
Mg   47.065   45.072   43.670
C   43.606   44.406   43.398
C   47.694   41.732   42.821
C   50.218   45.715   43.488
C   46.273   48.468   43.754
N   45.746   43.244   43.139
C   44.378   43.187   43.164
C   43.807   41.739   42.874
C   45.062   40.903   42.925
C   46.250   41.983   42.994
C   45.261   39.751   43.966
C   42.992   41.621   41.491
C   43.179   42.672   40.354
C   43.176   42.142   38.939
O   42.726   41.059   38.576
O   43.530   43.062   38.041
N   48.758   43.842   43.212
C   48.812   42.544   42.889
C   50.170   42.151   42.792
C   50.972   43.296   43.021
C   50.010   44.332   43.300
C   50.656   40.736   42.422
C   52.479   43.449   42.972
O   53.171   42.429   42.697
C   53.292   44.665   43.312
N   48.082   46.899   43.494
C   49.394   46.877   43.641
C   49.980   48.338   43.848
C   48.689   49.191   43.934
C   47.614   48.128   43.798
C   50.876   48.456   45.098
C   48.562   50.139   42.759
C   48.206   51.628   43.104
N   45.301   46.256   43.625
C   45.176   47.607   43.677
C   43.793   47.951   43.769
C   43.178   46.728   43.641
C   44.131   45.698   43.525
C   43.193   49.233   44.008
C   41.839   46.075   43.653
O   40.705   46.498   43.751
C   42.093   44.602   43.475
C   41.450   43.748   44.578
O   40.470   43.072   44.464
O   42.216   43.855   45.718
C   41.727   43.229   46.934
C   43.412   42.652   36.585
C   44.710   41.983   36.260
C   44.905   40.819   35.691
C   43.827   39.837   35.216
C   46.338   40.427   35.290
C   46.938   40.859   33.968
C   48.354   41.495   34.018
C   48.374   42.777   33.153
C   49.797   43.130   32.820
C   47.556   43.965   33.877
C   47.482   45.075   32.900
C   46.178   45.017   32.043
C   46.420   45.261   30.589
C   46.683   46.783   30.316
C   45.147   44.826   29.784
C   45.471   43.726   28.832
C   44.296   43.597   27.800
C   44.793   43.270   26.320
C   44.040   44.043   25.198
C   44.759   41.741   26.097
H   47.997   40.699   42.642
H   51.261   46.035   43.447
H   45.969   49.516   43.715
H   43.145   41.351   43.648
H   45.130   40.532   41.902
H   45.364   38.761   43.521
H   44.436   39.745   44.678
H   46.214   39.915   44.469
H   41.948   41.576   41.798
H   43.174   40.638   41.056
H   44.157   43.091   40.590
H   42.407   43.440   40.402
H   51.032   40.758   41.399
H   49.946   39.920   42.557
H   51.512   40.566   43.075
H   53.163   45.190   44.258
H   53.082   45.356   42.496
H   54.339   44.387   43.188
H   50.526   48.515   42.922
H   48.443   49.753   44.835
H   51.790   48.979   44.819
H   51.196   47.459   45.399
H   50.278   48.947   45.866
H   47.884   49.714   42.018
H   49.491   50.232   42.196
H   49.063   52.251   42.846
H   47.961   51.675   44.165
H   47.397   52.020   42.487
H   43.594   49.690   44.912
H   42.117   49.057   44.001
H   43.535   49.929   43.242
H   41.581   44.206   42.598
H   41.382   44.047   47.566
H   42.572   42.837   47.499
H   40.940   42.475   46.913
H   43.227   43.537   35.977
H   42.546   42.019   36.393
H   45.600   42.566   36.493
H   44.173   38.900   35.652
H   43.842   39.628   34.146
H   42.866   40.042   35.687
H   46.471   39.347   35.356
H   47.015   40.830   36.043
H   46.357   41.619   33.445
H   46.924   40.001   33.295
H   48.892   40.780   33.396
H   48.880   41.730   34.944
H   47.943   42.683   32.156
H   50.299   43.548   33.693
H   50.024   43.677   31.905
H   50.348   42.219   32.589
H   48.082   44.281   34.778
H   46.574   43.633   34.214
H   48.376   45.196   32.289
H   47.361   45.885   33.620
H   45.465   45.748   32.426
H   45.814   43.992   32.111
H   47.170   44.520   30.312
H   47.037   47.262   31.229
H   45.781   47.297   29.983
H   47.457   46.806   29.549
H   44.850   45.604   29.080
H   44.291   44.568   30.407
H   45.498   42.704   29.211
H   46.391   43.925   28.282
H   43.680   44.489   27.693
H   43.811   42.680   28.135
H   45.855   43.463   26.163
H   43.504   43.549   24.387
H   44.784   44.622   24.652
H   43.251   44.703   25.559
H   44.409   41.511   25.091
H   44.126   41.104   26.716
H   45.729   41.245   26.094
