140
17
Mg   29.734   58.680   41.637
C   26.684   57.553   40.537
C   31.292   56.061   40.263
C   32.686   60.378   42.082
C   28.067   61.904   42.263
N   29.031   57.044   40.409
C   27.762   56.740   40.036
C   27.794   55.388   39.225
C   29.269   54.790   39.393
C   29.902   56.026   40.122
C   29.343   53.467   40.135
C   27.326   55.681   37.810
C   26.335   54.742   37.193
C   26.197   54.515   35.741
O   25.504   53.676   35.250
O   26.830   55.421   34.935
N   31.663   58.206   41.417
C   32.151   56.996   40.905
C   33.564   56.948   41.031
C   33.991   58.186   41.503
C   32.719   59.006   41.716
C   34.409   55.783   40.587
C   35.411   58.594   41.726
O   36.314   57.849   41.402
C   35.854   59.982   42.112
N   30.308   60.900   42.011
C   31.626   61.290   42.191
C   31.760   62.679   42.792
C   30.238   63.167   42.848
C   29.466   61.979   42.372
C   32.655   62.836   44.053
C   29.995   64.463   42.252
C   28.831   65.263   42.977
N   27.746   59.546   41.515
C   27.261   60.757   41.858
C   25.809   60.751   41.739
C   25.560   59.489   41.250
C   26.781   58.823   41.131
C   24.957   61.888   42.118
C   24.494   58.546   40.806
O   23.260   58.603   40.851
C   25.216   57.279   40.404
C   24.826   56.190   41.308
O   25.229   55.955   42.416
O   23.692   55.680   40.749
C   22.851   54.997   41.684
C   26.727   55.354   33.491
C   27.358   56.529   32.844
C   27.670   56.661   31.535
C   27.394   55.689   30.375
C   28.562   57.857   31.096
C   27.754   59.180   30.903
C   28.400   60.390   31.567
C   29.678   60.682   30.773
C   29.627   62.060   30.055
C   30.932   60.525   31.727
C   32.209   60.195   30.853
C   33.110   59.091   31.546
C   33.362   57.870   30.515
C   32.778   56.615   31.093
C   34.853   57.881   30.038
C   34.959   57.595   28.504
C   35.063   56.145   28.159
C   36.264   55.862   27.307
C   35.894   56.272   25.917
C   36.632   54.333   27.504
H   31.774   55.158   39.882
H   33.652   60.874   42.204
H   27.542   62.803   42.593
H   27.033   54.813   39.753
H   29.811   54.641   38.460
H   29.747   53.595   41.140
H   29.950   52.764   39.564
H   28.301   53.153   40.195
H   28.164   55.723   37.113
H   26.985   56.707   37.671
H   25.353   55.098   37.505
H   26.476   53.790   37.704
H   34.732   55.956   39.561
H   33.876   54.835   40.520
H   35.184   55.525   41.309
H   35.467   60.627   41.323
H   36.942   60.000   42.169
H   35.329   60.230   43.035
H   32.218   63.308   42.029
H   30.057   63.312   43.913
H   32.973   63.879   44.055
H   33.483   62.132   44.138
H   32.041   62.841   44.954
H   29.742   64.402   41.193
H   30.894   65.056   42.419
H   29.112   66.260   43.315
H   28.354   64.662   43.752
H   28.102   65.647   42.264
H   25.279   62.578   41.338
H   25.246   62.298   43.085
H   23.917   61.573   42.030
H   25.039   57.047   39.354
H   22.281   55.796   42.157
H   23.328   54.306   42.379
H   22.101   54.440   41.122
H   25.667   55.387   33.240
H   27.189   54.446   33.102
H   27.832   57.177   33.581
H   27.115   56.235   29.474
H   26.678   54.891   30.571
H   28.325   55.219   30.057
H   29.107   57.696   30.166
H   29.315   58.034   31.865
H   26.740   59.072   31.288
H   27.670   59.280   29.821
H   28.630   60.209   32.617
H   27.748   61.255   31.446
H   29.766   59.962   29.959
H   29.492   62.880   30.761
H   28.768   62.070   29.384
H   30.579   62.238   29.555
H   30.691   59.620   32.283
H   31.128   61.334   32.430
H   32.763   61.129   30.760
H   31.885   59.691   29.943
H   32.744   58.680   32.487
H   34.103   59.469   31.788
H   32.812   57.906   29.575
H   33.519   55.915   31.480
H   31.994   56.115   30.524
H   32.217   56.872   31.991
H   35.392   57.142   30.631
H   35.250   58.883   30.205
H   35.791   58.171   28.097
H   34.064   58.010   28.041
H   34.119   55.905   27.672
H   35.164   55.665   29.133
H   37.143   56.439   27.594
H   35.706   55.470   25.204
H   36.745   56.861   25.577
H   35.014   56.912   25.850
H   35.837   53.715   27.087
H   36.693   54.092   28.565
H   37.633   54.133   27.122
