140
35
Mg   9.326   3.459   28.258
C   11.009   2.142   31.127
C   7.597   5.618   30.429
C   7.700   4.710   25.663
C   10.660   0.874   26.405
N   9.338   3.849   30.540
C   10.118   3.194   31.498
C   9.840   3.715   32.902
C   8.492   4.591   32.620
C   8.384   4.615   31.118
C   7.217   4.130   33.393
C   11.028   4.546   33.411
C   11.629   4.073   34.761
C   10.641   4.012   35.975
O   9.541   4.520   35.986
O   11.151   3.251   36.995
N   7.969   5.003   28.066
C   7.422   5.828   29.029
C   6.774   6.967   28.375
C   6.767   6.633   26.995
C   7.483   5.412   26.822
C   6.053   8.084   29.194
C   6.215   7.481   25.741
O   6.362   7.201   24.521
C   5.516   8.816   25.985
N   9.094   2.797   26.275
C   8.505   3.555   25.362
C   8.526   2.809   23.967
C   9.560   1.707   24.199
C   9.712   1.728   25.684
C   7.106   2.357   23.455
C   10.899   1.836   23.267
C   10.802   1.208   21.949
N   10.555   1.900   28.633
C   11.017   0.919   27.795
C   11.837   -0.036   28.519
C   11.927   0.528   29.786
C   11.093   1.647   29.875
C   12.519   -1.219   27.974
C   12.587   0.335   31.100
O   13.383   -0.525   31.483
C   11.890   1.315   32.078
C   11.132   0.417   33.036
O   10.399   -0.502   32.747
O   11.478   0.773   34.317
C   10.656   0.090   35.368
C   10.254   3.040   38.139
C   10.379   4.228   39.073
C   11.031   4.203   40.234
C   12.219   3.344   40.751
C   10.961   5.437   41.113
C   9.667   5.512   42.027
C   8.746   6.757   41.599
C   8.574   7.910   42.612
C   7.441   7.624   43.670
C   8.364   9.246   41.936
C   9.589   10.208   42.266
C   9.303   11.023   43.533
C   10.409   10.925   44.732
C   11.286   12.196   44.679
C   9.701   10.979   46.156
C   9.310   9.554   46.660
C   8.208   9.494   47.651
C   7.779   8.013   47.968
C   6.536   7.477   47.221
C   7.576   7.747   49.507
H   7.031   6.362   30.993
H   7.159   4.991   24.757
H   11.029   -0.021   25.901
H   9.561   2.863   33.522
H   8.867   5.557   32.957
H   7.559   3.528   34.235
H   6.601   3.442   32.815
H   6.595   4.991   33.638
H   10.880   5.619   33.290
H   11.815   4.313   32.694
H   12.368   4.846   34.971
H   12.293   3.211   34.721
H   5.027   8.037   28.830
H   6.489   9.031   28.875
H   6.190   8.072   30.276
H   6.310   9.449   26.382
H   4.778   8.672   26.774
H   5.012   9.251   25.122
H   8.985   3.494   23.255
H   9.155   0.700   24.100
H   6.826   2.836   22.517
H   6.419   2.701   24.228
H   7.024   1.280   23.307
H   11.666   1.374   23.889
H   11.157   2.879   23.082
H   11.268   0.224   21.890
H   11.199   1.832   21.149
H   9.731   1.087   21.788
H   13.297   -0.800   27.335
H   11.836   -1.824   27.378
H   12.916   -1.852   28.768
H   12.680   1.756   32.686
H   11.314   -0.713   35.699
H   9.719   -0.337   35.013
H   10.416   0.799   36.161
H   10.514   2.102   38.629
H   9.183   2.966   37.954
H   9.597   4.986   39.039
H   12.130   2.407   40.201
H   12.207   3.006   41.788
H   13.118   3.884   40.456
H   10.964   6.316   40.468
H   11.917   5.571   41.620
H   10.120   5.782   42.981
H   9.137   4.560   42.057
H   7.831   6.164   41.604
H   8.850   7.170   40.596
H   9.550   7.904   43.097
H   6.578   7.240   43.126
H   7.158   8.491   44.266
H   7.764   6.930   44.445
H   7.461   9.763   42.262
H   8.176   9.212   40.863
H   9.845   10.867   41.436
H   10.570   9.740   42.351
H   8.359   10.846   44.049
H   9.284   12.037   43.133
H   10.913   9.965   44.619
H   10.946   12.967   43.988
H   12.306   11.925   44.405
H   11.304   12.682   45.655
H   8.804   11.593   46.236
H   10.315   11.341   46.981
H   10.199   9.147   47.143
H   9.072   9.035   45.732
H   7.390   10.087   47.242
H   8.529   9.987   48.568
H   8.601   7.372   47.649
H   5.635   7.564   47.827
H   6.702   6.476   46.824
H   6.398   8.083   46.325
H   6.702   7.113   49.655
H   7.556   8.494   50.301
H   8.463   7.140   49.691
