140
29
Mg   -1.663   16.684   27.165
C   -2.002   14.399   29.786
C   -2.702   19.138   29.279
C   -1.819   18.741   24.530
C   -1.442   14.013   25.045
N   -2.086   16.747   29.320
C   -2.006   15.758   30.243
C   -2.062   16.287   31.719
C   -2.403   17.838   31.507
C   -2.439   17.872   29.924
C   -3.718   18.380   32.133
C   -0.777   15.976   32.547
C   -0.449   17.013   33.659
C   0.267   16.480   34.967
O   0.907   15.413   35.077
O   0.107   17.371   35.955
N   -2.018   18.727   26.958
C   -2.445   19.594   27.962
C   -2.552   20.944   27.410
C   -2.100   20.823   26.054
C   -1.970   19.379   25.775
C   -2.935   22.166   28.316
C   -1.911   21.866   24.922
O   -1.431   21.572   23.836
C   -2.367   23.310   25.074
N   -1.748   16.409   25.058
C   -1.694   17.390   24.174
C   -1.604   16.930   22.726
C   -1.539   15.427   22.867
C   -1.491   15.261   24.413
C   -2.755   17.441   21.735
C   -0.545   14.612   22.043
C   0.880   14.653   22.683
N   -1.717   14.602   27.303
C   -1.535   13.636   26.349
C   -1.578   12.353   26.876
C   -1.802   12.590   28.252
C   -1.902   13.943   28.487
C   -1.507   11.031   26.179
C   -1.987   11.960   29.521
O   -2.000   10.763   29.912
C   -2.226   13.126   30.546
C   -1.494   12.899   31.791
O   -0.327   12.570   31.743
O   -2.229   13.028   32.968
C   -1.485   12.677   34.224
C   0.752   17.086   37.202
C   0.151   17.916   38.361
C   0.189   17.589   39.709
C   0.857   16.379   40.261
C   -0.649   18.406   40.741
C   -0.022   19.482   41.664
C   1.515   19.790   41.419
C   1.893   21.252   41.196
C   1.333   21.759   39.865
C   3.450   21.437   41.245
C   3.787   22.405   42.376
C   4.657   21.855   43.560
C   4.229   22.580   44.838
C   5.431   22.506   45.797
C   2.944   21.911   45.448
C   1.869   22.921   45.983
C   0.461   22.806   45.247
C   -0.600   22.054   46.036
C   -0.341   20.507   45.950
C   -2.016   22.341   45.471
H   -2.748   19.917   30.042
H   -1.915   19.384   23.654
H   -1.122   13.132   24.484
H   -2.822   15.795   32.326
H   -1.547   18.418   31.853
H   -4.301   18.854   31.344
H   -3.427   19.175   32.819
H   -4.378   17.657   32.612
H   -0.002   15.890   31.784
H   -0.975   15.104   33.170
H   -1.457   17.350   33.902
H   0.043   17.835   33.140
H   -3.977   22.185   28.639
H   -2.643   23.052   27.752
H   -2.310   22.126   29.208
H   -1.748   23.742   25.861
H   -3.359   23.179   25.507
H   -2.372   23.739   24.072
H   -0.682   17.386   22.365
H   -2.576   15.143   22.683
H   -3.514   16.703   21.474
H   -2.298   17.606   20.760
H   -3.215   18.326   22.174
H   -0.585   15.105   21.071
H   -0.876   13.578   21.948
H   1.608   15.020   21.959
H   1.140   13.628   22.948
H   0.966   15.286   23.566
H   -1.844   11.019   25.143
H   -2.073   10.282   26.733
H   -0.449   10.768   26.160
H   -3.274   13.257   30.814
H   -2.262   12.339   34.910
H   -0.974   13.521   34.688
H   -0.859   11.822   33.972
H   1.806   17.177   36.938
H   0.545   16.063   37.515
H   -0.526   18.715   38.058
H   1.622   16.708   40.964
H   1.382   15.695   39.594
H   0.108   15.831   40.834
H   -1.172   17.694   41.380
H   -1.416   18.962   40.201
H   -0.013   18.994   42.638
H   -0.654   20.361   41.541
H   1.892   19.145   40.625
H   2.009   19.493   42.344
H   1.474   21.733   42.080
H   0.551   22.498   40.037
H   1.019   20.905   39.264
H   2.041   22.298   39.236
H   3.959   21.936   40.420
H   3.878   20.435   41.273
H   2.914   22.974   42.695
H   4.407   23.204   41.970
H   5.698   22.100   43.349
H   4.466   20.782   43.523
H   3.963   23.615   44.624
H   6.305   21.970   45.428
H   5.128   22.168   46.788
H   5.780   23.532   45.918
H   3.307   21.148   46.136
H   2.379   21.421   44.655
H   2.116   23.977   46.093
H   1.795   22.570   47.013
H   0.483   22.261   44.303
H   0.162   23.795   44.901
H   -0.569   22.417   47.064
H   -1.202   19.948   46.316
H   0.598   20.282   46.458
H   -0.216   20.330   44.882
H   -2.754   21.564   45.275
H   -1.859   23.003   44.619
H   -2.652   22.882   46.172
