140
31
Mg   52.858   23.546   43.542
C   50.027   25.767   43.270
C   50.892   20.936   43.234
C   55.668   21.798   43.309
C   54.806   26.637   43.891
N   50.690   23.368   42.979
C   49.694   24.392   43.143
C   48.338   23.694   43.183
C   48.695   22.281   43.744
C   50.149   22.178   43.242
C   48.586   22.073   45.279
C   47.443   23.749   41.938
C   48.186   23.960   40.655
C   47.548   23.312   39.374
O   46.910   23.875   38.500
O   47.895   21.979   39.273
N   53.258   21.634   43.080
C   52.305   20.655   43.063
C   52.931   19.437   42.824
C   54.330   19.654   42.934
C   54.453   21.103   43.138
C   52.180   18.072   42.933
C   55.467   18.613   42.832
O   55.135   17.435   42.636
C   56.973   18.862   43.005
N   54.946   24.151   43.420
C   55.903   23.193   43.496
C   57.255   23.808   43.755
C   57.012   25.358   43.645
C   55.456   25.388   43.656
C   57.842   23.344   45.055
C   57.497   25.883   42.276
C   58.860   26.621   42.465
N   52.481   25.758   43.750
C   53.358   26.792   43.912
C   52.616   28.010   44.201
C   51.309   27.679   43.896
C   51.259   26.283   43.513
C   53.166   29.322   44.736
C   49.947   28.170   43.810
O   49.399   29.238   44.029
C   49.134   27.002   43.219
C   48.785   27.375   41.841
O   49.468   27.215   40.859
O   47.511   27.901   41.750
C   46.965   28.054   40.373
C   47.412   21.250   38.109
C   48.510   21.372   37.018
C   48.366   20.881   35.742
C   47.339   19.919   35.297
C   49.513   21.054   34.801
C   50.800   20.161   34.846
C   51.016   19.162   33.672
C   52.474   18.652   33.624
C   53.318   19.330   32.489
C   52.554   17.099   33.525
C   52.357   16.464   32.141
C   52.649   14.937   32.114
C   51.594   14.151   31.345
C   50.572   13.420   32.445
C   52.369   13.094   30.467
C   52.885   13.777   29.131
C   52.585   12.887   27.876
C   53.822   12.589   27.039
C   54.896   11.863   27.879
C   54.295   13.947   26.397
H   50.219   20.111   43.477
H   56.604   21.235   43.293
H   55.334   27.584   44.022
H   47.790   24.292   43.911
H   48.150   21.498   43.217
H   48.333   23.044   45.704
H   49.548   21.771   45.695
H   47.764   21.403   45.531
H   46.718   24.548   42.095
H   46.916   22.803   41.820
H   49.233   23.659   40.646
H   48.177   25.019   40.398
H   51.149   18.035   42.580
H   52.057   17.788   43.978
H   52.699   17.347   42.305
H   57.588   17.983   42.810
H   57.293   19.357   43.921
H   57.214   19.511   42.163
H   57.968   23.401   43.038
H   57.434   25.851   44.522
H   58.415   22.432   44.882
H   57.042   23.301   45.794
H   58.527   24.084   45.470
H   56.740   26.524   41.825
H   57.604   24.987   41.665
H   58.959   27.210   43.377
H   58.951   27.400   41.708
H   59.759   26.008   42.406
H   52.489   29.654   45.524
H   53.091   30.099   43.975
H   54.102   29.245   45.290
H   48.254   26.893   43.852
H   46.276   27.211   40.324
H   47.649   27.923   39.534
H   46.249   28.865   40.241
H   46.486   21.610   37.660
H   47.241   20.226   38.440
H   49.365   21.991   37.291
H   47.760   19.158   34.640
H   46.588   20.372   34.649
H   46.934   19.380   36.153
H   49.836   22.095   34.792
H   48.980   21.119   33.853
H   50.692   19.550   35.742
H   51.661   20.804   35.028
H   50.641   19.630   32.762
H   50.285   18.405   33.954
H   52.967   18.941   34.553
H   54.187   18.682   32.367
H   53.706   20.287   32.837
H   52.780   19.444   31.548
H   51.864   16.650   34.240
H   53.501   16.805   33.977
H   53.068   16.943   31.467
H   51.393   16.748   31.718
H   52.745   14.559   33.132
H   53.625   14.775   31.657
H   50.987   14.807   30.721
H   49.569   13.494   32.023
H   50.615   13.922   33.411
H   50.720   12.343   32.514
H   51.609   12.346   30.240
H   53.164   12.569   30.997
H   53.933   14.015   29.312
H   52.264   14.651   28.933
H   51.975   13.372   27.113
H   52.106   11.920   28.023
H   53.725   11.815   26.277
H   55.518   12.559   28.442
H   55.704   11.463   27.266
H   54.572   11.085   28.569
H   53.693   14.774   26.774
H   54.113   13.985   25.323
H   55.343   14.191   26.569
