140
4
Mg   17.661   -1.471   27.346
C   16.553   0.309   30.126
C   19.717   -3.192   29.504
C   19.147   -2.951   24.756
C   15.833   0.600   25.349
N   18.048   -1.356   29.494
C   17.506   -0.567   30.489
C   17.965   -0.963   31.919
C   19.125   -1.921   31.606
C   19.002   -2.121   30.091
C   20.598   -1.439   32.050
C   16.795   -1.539   32.758
C   16.814   -1.215   34.238
C   17.945   -0.525   34.936
O   18.084   0.670   35.246
O   18.861   -1.461   35.216
N   19.176   -2.897   27.120
C   19.847   -3.529   28.098
C   20.703   -4.472   27.647
C   20.459   -4.585   26.283
C   19.587   -3.468   25.992
C   21.754   -5.237   28.471
C   20.995   -5.541   25.276
O   20.764   -5.489   24.086
C   21.637   -6.848   25.667
N   17.594   -1.156   25.342
C   18.281   -1.880   24.439
C   18.048   -1.464   23.020
C   16.877   -0.448   23.185
C   16.701   -0.358   24.716
C   19.247   -0.821   22.367
C   15.528   -0.884   22.503
C   14.914   0.202   21.484
N   16.363   0.142   27.629
C   15.597   0.793   26.742
C   14.694   1.675   27.445
C   15.041   1.523   28.745
C   16.044   0.585   28.813
C   13.710   2.519   26.823
C   14.817   2.078   30.112
O   14.049   2.918   30.531
C   15.743   1.268   31.064
C   16.558   2.305   31.799
O   17.390   3.099   31.277
O   16.088   2.355   33.095
C   16.453   3.556   33.811
C   19.999   -0.989   36.085
C   21.053   -1.975   36.361
C   21.812   -2.179   37.441
C   21.799   -1.507   38.772
C   22.669   -3.461   37.530
C   21.850   -4.757   37.788
C   21.889   -5.379   39.212
C   22.698   -6.738   39.260
C   21.738   -7.998   39.281
C   23.865   -6.658   40.297
C   24.732   -7.947   40.240
C   26.151   -7.603   40.459
C   26.826   -8.397   41.597
C   27.104   -7.521   42.852
C   28.154   -9.109   41.074
C   28.120   -10.224   40.034
C   28.963   -11.503   40.324
C   30.284   -11.524   39.474
C   31.297   -10.398   39.816
C   30.949   -12.931   39.474
H   20.296   -3.713   30.269
H   19.556   -3.306   23.808
H   15.318   1.286   24.673
H   18.244   -0.040   32.428
H   18.999   -2.875   32.118
H   21.130   -1.215   31.126
H   21.035   -2.208   32.688
H   20.498   -0.575   32.707
H   16.899   -2.622   32.822
H   15.808   -1.417   32.312
H   16.547   -2.125   34.775
H   15.922   -0.612   34.407
H   22.478   -5.635   27.760
H   21.388   -5.851   29.294
H   22.494   -4.572   28.915
H   21.074   -7.225   26.521
H   22.686   -6.787   25.956
H   21.667   -7.652   24.932
H   17.877   -2.370   22.439
H   17.186   0.558   22.903
H   19.207   0.230   22.082
H   19.520   -1.417   21.496
H   20.132   -0.970   22.986
H   14.859   -1.070   23.343
H   15.612   -1.810   21.934
H   14.483   -0.245   20.588
H   15.642   0.960   21.193
H   14.082   0.625   22.045
H   12.758   2.591   27.348
H   13.459   2.217   25.806
H   14.227   3.473   26.711
H   15.143   0.646   31.728
H   17.254   3.381   34.530
H   15.578   3.748   34.433
H   16.658   4.436   33.202
H   19.684   -0.538   37.026
H   20.531   -0.243   35.494
H   21.105   -2.817   35.671
H   20.921   -0.871   38.885
H   22.707   -0.940   38.974
H   21.788   -2.330   39.487
H   23.417   -3.301   38.306
H   23.300   -3.670   36.667
H   22.126   -5.545   37.088
H   20.796   -4.539   37.616
H   20.864   -5.569   39.530
H   22.376   -4.713   39.924
H   23.324   -6.824   38.372
H   21.897   -8.401   40.281
H   21.972   -8.767   38.544
H   20.669   -7.786   39.273
H   23.367   -6.642   41.266
H   24.524   -5.791   40.249
H   24.683   -8.380   39.241
H   24.260   -8.636   40.939
H   26.289   -6.557   40.736
H   26.647   -7.761   39.501
H   26.165   -9.186   41.954
H   27.691   -6.667   42.514
H   27.669   -8.010   43.646
H   26.166   -7.162   43.275
H   28.641   -9.464   41.982
H   28.757   -8.337   40.597
H   28.431   -9.887   39.045
H   27.103   -10.603   39.927
H   28.327   -12.384   40.241
H   29.320   -11.471   41.353
H   29.965   -11.371   38.443
H   31.482   -9.722   38.981
H   32.282   -10.777   40.087
H   30.832   -9.751   40.560
H   30.457   -13.694   40.078
H   31.933   -12.824   39.929
H   31.089   -13.119   38.409
