140
7
Mg   46.664   34.717   27.817
C   45.204   32.745   30.407
C   46.666   37.362   30.060
C   47.480   36.714   25.298
C   45.989   32.185   25.503
N   45.998   34.986   29.953
C   45.752   33.951   30.857
C   45.804   34.503   32.307
C   45.946   36.060   32.073
C   46.234   36.170   30.609
C   44.761   36.907   32.580
C   47.091   33.926   33.051
C   47.034   33.645   34.553
C   45.988   34.576   35.367
O   44.767   34.544   35.429
O   46.730   35.574   35.995
N   47.211   36.680   27.714
C   47.099   37.658   28.749
C   47.607   38.974   28.247
C   47.871   38.681   26.839
C   47.520   37.308   26.548
C   47.960   40.132   29.170
C   48.420   39.654   25.784
O   48.602   39.403   24.598
C   48.759   41.072   26.288
N   46.634   34.521   25.703
C   47.008   35.488   24.867
C   46.991   35.004   23.428
C   46.750   33.474   23.503
C   46.429   33.367   25.024
C   45.827   35.737   22.692
C   47.896   32.578   22.942
C   49.191   32.490   23.853
N   45.773   32.836   27.902
C   45.621   31.986   26.832
C   45.094   30.728   27.357
C   44.796   31.031   28.779
C   45.248   32.343   29.056
C   44.804   29.427   26.675
C   44.236   30.504   30.033
O   43.718   29.429   30.213
C   44.350   31.686   31.088
C   44.747   31.304   32.478
O   45.784   30.847   32.887
O   43.624   31.576   33.280
C   43.880   31.449   34.743
C   46.013   36.612   36.766
C   46.859   37.756   37.309
C   46.671   38.596   38.331
C   45.353   38.910   38.916
C   47.750   39.520   38.806
C   47.674   41.037   38.250
C   48.966   41.893   38.604
C   49.052   43.291   37.750
C   49.653   43.132   36.296
C   49.713   44.484   38.558
C   48.865   44.836   39.737
C   48.514   46.398   39.961
C   47.069   46.846   39.646
C   47.003   48.328   39.447
C   46.041   46.344   40.674
C   44.719   45.771   40.044
C   43.587   46.849   40.317
C   42.238   46.494   39.597
C   42.288   47.070   38.170
C   41.058   47.133   40.423
H   46.648   38.171   30.793
H   47.658   37.351   24.428
H   45.855   31.335   24.830
H   44.789   34.328   32.663
H   46.825   36.393   32.624
H   45.229   37.789   33.018
H   44.085   36.387   33.260
H   44.157   37.204   31.723
H   47.913   34.640   32.991
H   47.283   32.967   32.571
H   48.004   33.918   34.967
H   46.860   32.614   34.862
H   48.914   40.604   28.937
H   47.933   39.758   30.194
H   47.191   40.903   29.118
H   49.551   41.171   27.031
H   47.850   41.503   26.708
H   49.117   41.691   25.466
H   47.882   35.158   22.819
H   45.892   33.236   22.874
H   45.783   36.808   22.892
H   44.853   35.341   22.980
H   46.069   35.704   21.630
H   48.196   32.953   21.963
H   47.415   31.605   22.848
H   50.047   32.548   23.180
H   49.280   31.467   24.220
H   49.136   33.371   24.491
H   43.754   29.175   26.819
H   45.470   28.686   27.119
H   45.034   29.624   25.628
H   43.402   32.195   31.264
H   43.392   30.551   35.124
H   43.371   32.332   35.129
H   44.888   31.435   35.158
H   45.332   36.143   37.476
H   45.438   37.166   36.025
H   47.859   37.775   36.876
H   44.998   39.918   38.701
H   45.318   38.724   39.989
H   44.611   38.204   38.541
H   48.745   39.078   38.752
H   47.602   39.677   39.874
H   46.781   41.480   38.693
H   47.520   41.103   37.173
H   49.870   41.352   38.322
H   49.046   42.191   39.649
H   48.009   43.545   37.559
H   48.821   43.291   35.610
H   50.141   42.202   36.005
H   50.380   43.919   36.091
H   49.833   45.356   37.916
H   50.683   44.036   38.778
H   49.478   44.489   40.568
H   47.868   44.394   39.743
H   49.308   47.044   39.587
H   48.642   46.625   41.019
H   46.955   46.373   38.670
H   47.156   48.609   38.405
H   47.884   48.669   39.991
H   46.076   48.777   39.801
H   45.957   47.173   41.376
H   46.561   45.508   41.143
H   44.429   44.867   40.581
H   44.840   45.598   38.974
H   43.952   47.821   39.984
H   43.409   46.822   41.392
H   42.142   45.410   39.664
H   43.318   46.886   37.864
H   42.066   48.126   38.015
H   41.715   46.409   37.521
H   41.476   47.843   41.137
H   40.500   46.314   40.876
H   40.353   47.599   39.734
