140
23
Mg   3.521   0.632   44.163
C   6.399   2.692   43.790
C   1.659   3.119   42.750
C   1.141   -1.677   43.603
C   5.793   -2.054   44.826
N   4.027   2.521   43.128
C   5.270   3.220   43.115
C   5.189   4.566   42.523
C   3.578   4.815   42.607
C   3.003   3.365   42.778
C   3.225   5.746   43.787
C   5.701   4.660   41.098
C   6.345   3.491   40.389
C   6.809   3.824   38.987
O   7.895   4.332   38.676
O   5.923   3.230   38.131
N   1.664   0.696   43.402
C   1.054   1.845   42.881
C   -0.274   1.510   42.558
C   -0.506   0.185   43.023
C   0.753   -0.364   43.362
C   -1.296   2.416   41.951
C   -1.869   -0.511   42.838
O   -2.902   0.072   42.488
C   -1.926   -1.994   43.044
N   3.415   -1.639   44.406
C   2.330   -2.302   43.987
C   2.532   -3.833   44.027
C   4.091   -3.929   44.519
C   4.512   -2.469   44.572
C   1.545   -4.741   44.708
C   4.990   -4.816   43.613
C   6.151   -5.721   44.215
N   5.632   0.296   44.380
C   6.407   -0.816   44.723
C   7.770   -0.420   44.950
C   7.797   0.945   44.727
C   6.481   1.371   44.355
C   8.931   -1.300   45.414
C   8.667   2.108   44.726
O   9.851   2.276   45.066
C   7.767   3.323   44.165
C   7.570   4.313   45.318
O   8.558   4.849   45.778
O   6.278   4.651   45.657
C   6.266   5.665   46.767
C   6.255   3.348   36.682
C   4.999   2.870   35.946
C   4.751   1.903   35.005
C   5.720   1.187   34.173
C   3.242   1.574   34.756
C   2.291   2.584   34.034
C   1.782   1.960   32.676
C   0.194   1.918   32.713
C   -0.254   0.476   33.030
C   -0.406   2.292   31.347
C   -0.735   3.851   31.375
C   -2.151   4.168   30.803
C   -2.127   4.488   29.300
C   -2.919   5.797   29.005
C   -2.744   3.286   28.506
C   -2.166   3.235   27.055
C   -3.365   3.091   26.080
C   -3.128   3.981   24.796
C   -4.484   4.592   24.325
C   -2.509   3.214   23.640
H   1.026   3.923   42.369
H   0.445   -2.484   43.366
H   6.465   -2.874   45.087
H   5.755   5.318   43.074
H   3.209   5.197   41.655
H   4.025   5.875   44.516
H   2.303   5.435   44.279
H   2.850   6.668   43.344
H   6.602   5.272   41.075
H   5.023   5.044   40.335
H   5.872   2.514   40.488
H   7.252   3.341   40.974
H   -1.627   2.080   40.969
H   -0.900   3.420   41.798
H   -2.233   2.431   42.507
H   -1.470   -2.324   43.978
H   -1.481   -2.468   42.169
H   -2.967   -2.306   43.127
H   2.447   -4.090   42.971
H   4.073   -4.143   45.587
H   0.881   -4.218   45.396
H   2.045   -5.527   45.274
H   0.892   -5.135   43.929
H   5.252   -4.082   42.851
H   4.400   -5.566   43.087
H   6.273   -6.577   43.551
H   5.702   -6.054   45.151
H   7.042   -5.104   44.327
H   8.598   -2.181   45.963
H   9.645   -0.786   46.059
H   9.495   -1.718   44.580
H   8.250   3.818   43.323
H   6.655   6.528   46.226
H   6.923   5.283   47.548
H   5.320   5.778   47.297
H   7.025   2.661   36.333
H   6.398   4.375   36.345
H   4.063   3.206   36.392
H   6.743   1.112   34.540
H   5.709   1.606   33.166
H   5.328   0.171   34.131
H   2.988   1.221   35.756
H   3.186   0.666   34.156
H   2.699   3.561   33.775
H   1.522   2.687   34.800
H   2.098   0.941   32.453
H   2.152   2.584   31.862
H   -0.208   2.556   33.500
H   -0.255   0.544   34.118
H   0.296   -0.427   32.765
H   -1.235   0.212   32.635
H   -1.340   1.731   31.325
H   0.268   2.167   30.500
H   0.016   4.449   30.858
H   -0.569   4.246   32.377
H   -2.599   4.975   31.383
H   -2.789   3.303   30.980
H   -1.075   4.684   29.094
H   -2.221   6.616   28.833
H   -3.450   6.050   29.923
H   -3.521   5.677   28.104
H   -3.822   3.415   28.603
H   -2.740   2.345   29.057
H   -1.409   2.452   27.061
H   -1.847   4.235   26.760
H   -4.376   3.377   26.372
H   -3.497   2.066   25.734
H   -2.534   4.893   24.850
H   -5.252   4.975   24.998
H   -5.005   3.821   23.758
H   -4.229   5.526   23.825
H   -2.143   3.927   22.902
H   -3.224   2.475   23.277
H   -1.629   2.844   24.166
