140
36
Mg   -2.819   18.068   25.994
C   -2.732   15.801   28.696
C   -3.373   20.601   28.170
C   -2.613   20.087   23.353
C   -2.632   15.251   23.816
N   -3.130   18.162   28.167
C   -2.976   17.144   29.062
C   -3.411   17.575   30.486
C   -3.643   19.170   30.326
C   -3.357   19.345   28.817
C   -5.079   19.610   30.697
C   -2.261   17.160   31.414
C   -2.383   17.803   32.884
C   -1.788   16.920   34.024
O   -2.313   15.886   34.426
O   -0.717   17.506   34.639
N   -3.024   20.130   25.789
C   -3.116   20.994   26.815
C   -2.893   22.363   26.342
C   -2.635   22.246   24.925
C   -2.761   20.786   24.612
C   -2.910   23.608   27.248
C   -2.172   23.348   23.962
O   -2.024   23.105   22.791
C   -1.768   24.653   24.489
N   -2.629   17.719   23.904
C   -2.680   18.760   23.034
C   -2.712   18.202   21.633
C   -2.456   16.667   21.767
C   -2.557   16.475   23.255
C   -3.921   18.619   20.783
C   -1.069   16.049   21.245
C   0.128   16.188   22.258
N   -2.764   16.031   26.139
C   -2.660   14.988   25.190
C   -2.583   13.730   25.847
C   -2.600   13.999   27.231
C   -2.719   15.373   27.382
C   -2.491   12.383   25.165
C   -2.469   13.328   28.523
O   -2.415   12.210   28.897
C   -2.571   14.546   29.464
C   -1.264   14.552   30.143
O   -0.304   15.295   29.812
O   -1.162   13.652   31.143
C   0.091   13.663   31.934
C   -0.013   16.777   35.724
C   -0.423   17.344   37.106
C   -0.723   16.684   38.251
C   -0.335   15.243   38.505
C   -1.466   17.405   39.378
C   -0.523   18.298   40.161
C   -0.586   19.780   39.747
C   0.049   20.672   40.873
C   -1.014   21.465   41.679
C   1.083   21.646   40.277
C   1.706   22.761   41.198
C   3.102   22.275   41.492
C   3.485   22.698   42.942
C   4.879   23.239   43.090
C   3.224   21.496   43.953
C   3.239   21.818   45.502
C   2.116   21.218   46.387
C   0.879   22.179   46.575
C   0.300   22.092   47.918
C   -0.232   21.885   45.568
H   -3.556   21.396   28.896
H   -2.414   20.782   22.535
H   -2.525   14.392   23.152
H   -4.296   17.003   30.766
H   -2.895   19.713   30.902
H   -5.620   19.983   29.828
H   -5.032   20.363   31.484
H   -5.587   18.818   31.248
H   -1.286   17.416   30.999
H   -2.361   16.118   31.718
H   -3.339   18.252   33.154
H   -1.817   18.731   32.795
H   -3.147   23.387   28.289
H   -3.670   24.294   26.873
H   -2.014   24.227   27.291
H   -0.922   24.459   25.148
H   -2.579   25.056   25.096
H   -1.514   25.525   23.886
H   -1.784   18.555   21.183
H   -3.251   16.072   21.319
H   -4.195   19.605   21.159
H   -4.815   18.040   21.018
H   -3.720   18.545   19.714
H   -0.794   16.587   20.338
H   -1.179   14.994   20.995
H   0.121   17.162   22.746
H   1.099   16.151   21.763
H   -0.020   15.348   22.937
H   -2.484   11.682   26.000
H   -1.572   12.327   24.581
H   -3.311   12.128   24.493
H   -3.334   14.290   30.199
H   -0.046   14.493   32.627
H   0.941   13.945   31.312
H   0.321   12.882   32.658
H   1.066   16.855   35.595
H   -0.398   15.757   35.728
H   -0.680   18.402   37.168
H   0.286   15.177   39.399
H   0.199   14.875   37.629
H   -1.239   14.684   38.747
H   -1.880   16.683   40.082
H   -2.269   18.044   39.010
H   0.509   17.948   40.130
H   -0.803   18.072   41.190
H   -1.666   19.923   39.733
H   -0.238   20.037   38.747
H   0.623   20.055   41.564
H   -1.002   22.550   41.570
H   -0.793   21.162   42.702
H   -2.003   21.035   41.525
H   0.554   22.217   39.514
H   1.836   21.120   39.691
H   1.204   22.809   42.163
H   1.693   23.709   40.660
H   3.646   22.795   40.704
H   3.372   21.241   41.274
H   2.942   23.545   43.360
H   5.355   23.052   42.127
H   5.406   22.669   43.855
H   4.895   24.279   43.418
H   3.885   20.680   43.664
H   2.158   21.283   43.866
H   3.317   22.895   45.651
H   4.165   21.408   45.903
H   2.529   20.860   47.330
H   1.632   20.386   45.874
H   1.165   23.209   46.365
H   0.468   23.053   48.404
H   0.866   21.317   48.435
H   -0.736   21.756   47.953
H   0.179   21.623   44.593
H   -0.745   22.837   45.430
H   -0.896   21.080   45.883
