140
2
Mg   35.034   49.199   25.986
C   35.198   47.432   28.955
C   33.409   51.848   27.810
C   34.407   50.878   23.066
C   36.088   46.414   24.203
N   34.314   49.582   28.141
C   34.770   48.711   29.179
C   34.503   49.457   30.506
C   34.002   50.864   30.056
C   33.899   50.732   28.526
C   32.731   51.395   30.826
C   35.769   49.461   31.446
C   35.467   48.984   32.840
C   33.997   48.918   33.351
O   33.226   47.971   33.260
O   33.634   50.013   34.045
N   34.141   51.147   25.508
C   33.484   52.036   26.377
C   33.055   53.119   25.565
C   33.364   52.950   24.212
C   33.992   51.615   24.208
C   32.219   54.158   26.241
C   33.190   53.794   22.955
O   33.619   53.471   21.847
C   32.382   55.010   23.154
N   35.051   48.633   23.928
C   34.914   49.540   22.947
C   35.104   48.918   21.556
C   35.814   47.630   21.897
C   35.690   47.519   23.471
C   33.852   48.839   20.615
C   37.251   47.484   21.312
C   38.426   48.133   22.145
N   35.504   47.243   26.418
C   35.925   46.227   25.622
C   36.137   45.068   26.403
C   35.891   45.490   27.751
C   35.462   46.810   27.703
C   36.368   43.653   25.881
C   35.972   45.043   29.142
O   36.253   43.939   29.595
C   35.449   46.324   29.992
C   34.146   45.901   30.618
O   32.999   46.257   30.319
O   34.426   45.156   31.722
C   33.255   44.492   32.364
C   32.281   50.060   34.677
C   31.794   51.441   34.601
C   30.788   52.148   35.248
C   29.952   51.594   36.420
C   30.321   53.412   34.590
C   31.343   54.597   34.474
C   30.657   55.946   34.275
C   31.266   57.061   35.196
C   32.758   57.307   34.842
C   30.237   58.252   35.101
C   29.611   58.600   36.434
C   30.510   59.638   37.162
C   29.977   61.117   37.162
C   31.175   62.053   37.477
C   28.728   61.324   38.120
C   27.458   61.934   37.382
C   27.170   63.462   37.709
C   25.713   64.044   37.700
C   25.054   63.835   39.030
C   24.900   63.494   36.535
H   33.032   52.659   28.437
H   34.317   51.416   22.120
H   36.240   45.459   23.696
H   33.699   48.808   30.852
H   34.748   51.638   30.235
H   31.879   51.408   30.146
H   32.837   52.426   31.163
H   32.638   50.689   31.650
H   36.108   50.494   31.515
H   36.575   48.824   31.084
H   36.000   49.569   33.589
H   35.817   47.962   32.988
H   32.872   54.943   26.620
H   31.680   53.643   27.036
H   31.638   54.618   25.441
H   31.430   54.544   23.411
H   32.397   55.533   22.198
H   32.888   55.585   23.929
H   35.764   49.606   21.026
H   35.141   46.834   21.578
H   33.035   49.288   21.180
H   33.526   47.809   20.472
H   34.072   49.253   19.631
H   37.250   47.901   20.306
H   37.338   46.431   21.044
H   38.198   48.459   23.160
H   38.698   49.083   21.685
H   39.241   47.410   22.164
H   36.135   42.979   26.706
H   37.389   43.471   25.544
H   35.719   43.502   25.018
H   36.165   46.556   30.781
H   32.671   44.063   31.549
H   32.754   45.228   32.992
H   33.800   43.792   32.996
H   32.423   49.713   35.701
H   31.476   49.423   34.311
H   32.078   52.024   33.724
H   30.232   50.622   36.827
H   28.883   51.460   36.257
H   30.071   52.316   37.227
H   29.523   53.868   35.175
H   29.923   53.231   33.592
H   31.907   54.272   33.600
H   32.019   54.615   35.329
H   29.575   55.903   34.400
H   30.865   56.280   33.259
H   31.187   56.685   36.216
H   33.130   56.596   34.104
H   33.400   57.263   35.722
H   32.899   58.300   34.416
H   29.511   57.977   34.336
H   30.655   59.206   34.780
H   29.500   57.726   37.075
H   28.681   59.124   36.214
H   31.460   59.690   36.629
H   30.727   59.418   38.208
H   29.799   61.423   36.132
H   30.739   62.955   37.907
H   31.794   62.328   36.623
H   31.796   61.548   38.216
H   29.028   62.029   38.895
H   28.553   60.369   38.616
H   26.572   61.343   37.614
H   27.586   61.873   36.302
H   27.704   64.132   37.035
H   27.553   63.623   38.716
H   25.722   65.132   37.628
H   24.987   64.832   39.466
H   25.587   63.169   39.709
H   24.029   63.468   39.076
H   25.641   63.026   35.887
H   24.325   64.226   35.969
H   24.299   62.679   36.939
