140
30
Mg   7.285   56.917   41.868
C   5.496   53.816   41.916
C   10.031   55.088   40.537
C   8.830   59.882   41.121
C   4.344   58.489   42.561
N   7.663   54.715   41.164
C   6.810   53.663   41.386
C   7.496   52.394   40.849
C   8.980   52.733   40.839
C   8.874   54.298   40.818
C   10.015   52.126   41.798
C   6.999   51.977   39.419
C   7.674   50.711   38.905
C   7.003   49.973   37.742
O   6.354   48.904   37.806
O   7.188   50.694   36.605
N   9.147   57.444   41.022
C   10.123   56.565   40.550
C   11.351   57.302   40.187
C   11.029   58.747   40.365
C   9.626   58.728   40.831
C   12.639   56.636   39.605
C   11.967   59.926   40.092
O   13.078   59.757   39.652
C   11.689   61.396   40.531
N   6.586   58.826   41.454
C   7.479   59.909   41.390
C   6.737   61.209   41.555
C   5.326   60.759   42.133
C   5.421   59.201   42.097
C   7.399   62.070   42.636
C   4.131   61.314   41.290
C   3.142   62.303   41.952
N   5.330   56.301   42.216
C   4.209   57.108   42.514
C   3.085   56.308   42.777
C   3.495   55.018   42.637
C   4.885   55.057   42.204
C   1.699   56.785   43.161
C   3.153   53.617   42.611
O   2.125   53.026   42.933
C   4.493   52.828   42.325
C   4.137   51.672   41.439
O   3.343   51.736   40.488
O   4.857   50.597   41.835
C   4.675   49.439   40.961
C   6.260   50.249   35.579
C   6.509   51.067   34.413
C   6.037   50.965   33.157
C   5.345   49.708   32.713
C   6.358   51.938   32.019
C   5.257   52.750   31.418
C   5.717   53.513   30.111
C   5.793   55.088   30.349
C   4.650   55.851   29.576
C   7.137   55.684   29.933
C   8.322   55.097   30.823
C   9.307   56.122   31.456
C   10.656   56.232   30.774
C   11.894   55.691   31.581
C   11.124   57.733   30.409
C   11.949   57.804   29.149
C   13.489   58.114   29.351
C   14.478   57.029   28.872
C   15.612   56.830   29.864
C   15.033   57.231   27.510
H   10.964   54.587   40.271
H   9.316   60.847   40.967
H   3.593   59.204   42.901
H   7.384   51.559   41.540
H   9.428   52.708   39.846
H   9.742   51.219   42.337
H   10.183   52.699   42.711
H   10.998   51.990   41.346
H   7.178   52.747   38.668
H   5.920   51.834   39.477
H   7.896   50.106   39.784
H   8.595   51.106   38.475
H   12.897   55.683   40.066
H   13.526   57.229   39.828
H   12.540   56.412   38.542
H   11.051   61.796   39.742
H   12.726   61.734   40.558
H   11.193   61.491   41.497
H   6.643   61.844   40.675
H   5.191   61.289   43.076
H   6.815   62.488   43.456
H   8.046   62.867   42.271
H   8.117   61.430   43.150
H   3.490   60.459   41.076
H   4.485   61.701   40.335
H   3.209   62.272   43.040
H   2.110   62.001   41.775
H   3.344   63.332   41.655
H   1.368   56.337   44.098
H   1.060   56.415   42.360
H   1.637   57.869   43.261
H   4.820   52.468   43.301
H   5.300   48.675   41.425
H   4.836   49.578   39.892
H   3.650   49.074   40.896
H   5.235   50.308   35.946
H   6.375   49.172   35.458
H   7.016   52.012   34.609
H   4.322   49.975   32.450
H   5.412   48.832   33.358
H   5.742   49.505   31.718
H   6.753   51.347   31.193
H   7.100   52.646   32.389
H   4.924   53.548   32.081
H   4.407   52.109   31.184
H   5.009   53.372   29.293
H   6.671   53.158   29.721
H   5.728   55.289   31.418
H   5.081   56.573   28.882
H   4.025   56.420   30.265
H   3.922   55.187   29.108
H   7.117   56.774   29.931
H   7.264   55.240   28.945
H   8.825   54.290   30.290
H   7.896   54.565   31.673
H   9.415   55.916   32.521
H   8.780   57.075   31.480
H   10.641   55.538   29.933
H   12.000   54.618   31.422
H   11.723   55.897   32.637
H   12.816   56.243   31.396
H   11.589   58.233   31.258
H   10.224   58.306   30.188
H   11.643   58.592   28.462
H   11.874   56.810   28.706
H   13.761   58.267   30.396
H   13.675   59.082   28.885
H   13.980   56.060   28.829
H   16.569   56.723   29.354
H   15.346   55.877   30.321
H   15.635   57.663   30.566
H   16.003   57.727   27.462
H   14.337   57.748   26.849
H   15.183   56.251   27.055
