140
20
Mg   -10.730   39.961   42.978
C   -9.179   36.947   41.675
C   -8.622   41.743   40.966
C   -12.664   42.622   43.632
C   -13.177   37.810   44.428
N   -9.132   39.389   41.430
C   -8.552   38.089   41.208
C   -7.168   38.257   40.490
C   -7.104   39.831   40.242
C   -8.357   40.415   40.985
C   -5.775   40.387   40.642
C   -6.964   37.293   39.237
C   -5.638   36.629   39.221
C   -4.816   36.747   37.969
O   -4.161   37.806   37.776
O   -4.825   35.764   37.076
N   -10.724   41.925   42.212
C   -9.646   42.446   41.585
C   -9.876   43.875   41.554
C   -11.135   44.191   42.103
C   -11.595   42.921   42.656
C   -9.005   44.880   40.736
C   -11.828   45.533   42.089
O   -11.231   46.518   41.685
C   -13.286   45.729   42.496
N   -12.590   40.202   43.829
C   -13.114   41.397   44.150
C   -14.344   41.312   45.186
C   -14.671   39.792   45.096
C   -13.405   39.241   44.389
C   -14.140   41.949   46.581
C   -15.991   39.330   44.499
C   -17.031   38.796   45.566
N   -11.003   37.770   43.225
C   -12.085   37.100   43.811
C   -11.783   35.688   43.738
C   -10.631   35.538   42.959
C   -10.265   36.843   42.580
C   -12.597   34.573   44.327
C   -9.699   34.607   42.333
O   -9.813   33.426   42.332
C   -8.638   35.545   41.627
C   -7.380   35.344   42.511
O   -7.249   35.807   43.602
O   -6.428   34.632   41.819
C   -5.172   34.507   42.559
C   -4.171   35.823   35.774
C   -5.084   35.906   34.561
C   -5.460   36.894   33.744
C   -5.414   38.324   34.134
C   -6.492   36.546   32.596
C   -6.008   37.125   31.339
C   -5.911   36.012   30.188
C   -6.230   36.599   28.803
C   -5.398   35.896   27.752
C   -7.756   36.437   28.474
C   -8.534   37.755   28.419
C   -9.841   37.681   29.334
C   -9.850   38.788   30.425
C   -10.927   38.406   31.493
C   -9.983   40.219   29.881
C   -9.618   41.261   30.940
C   -8.511   42.259   30.466
C   -7.308   42.294   31.407
C   -6.625   43.659   31.623
C   -6.217   41.271   31.004
H   -7.916   42.432   40.497
H   -13.080   43.561   44.002
H   -14.059   37.246   44.738
H   -6.428   38.083   41.271
H   -7.166   40.129   39.196
H   -5.584   41.266   40.027
H   -4.965   39.687   40.438
H   -5.826   40.500   41.725
H   -6.952   37.992   38.401
H   -7.753   36.578   39.002
H   -5.862   35.581   39.417
H   -5.003   37.094   39.976
H   -8.019   44.482   40.498
H   -8.959   45.865   41.200
H   -9.622   44.982   39.843
H   -13.376   45.779   43.581
H   -13.860   44.889   42.106
H   -13.644   46.596   41.940
H   -15.128   41.878   44.682
H   -14.645   39.308   46.072
H   -13.865   41.185   47.308
H   -15.136   42.351   46.767
H   -13.397   42.719   46.375
H   -15.801   38.553   43.757
H   -16.499   40.172   44.029
H   -16.779   38.854   46.625
H   -17.078   37.724   45.375
H   -17.945   39.316   45.280
H   -12.059   33.672   44.032
H   -13.616   34.659   43.949
H   -12.622   34.639   45.414
H   -8.518   35.161   40.614
H   -5.282   33.589   43.136
H   -4.933   35.336   43.225
H   -4.339   34.405   41.863
H   -3.642   34.883   35.615
H   -3.383   36.572   35.695
H   -5.231   34.919   34.122
H   -4.620   38.650   34.806
H   -6.415   38.675   34.383
H   -5.062   38.870   33.259
H   -7.443   36.985   32.897
H   -6.522   35.457   32.549
H   -4.979   37.464   31.466
H   -6.664   37.939   31.031
H   -6.546   35.139   30.339
H   -4.860   35.730   30.263
H   -5.819   37.605   28.714
H   -4.361   35.763   28.057
H   -5.397   36.341   26.757
H   -5.811   34.889   27.693
H   -8.236   35.749   29.170
H   -7.899   35.955   27.507
H   -8.846   37.990   27.402
H   -7.909   38.528   28.867
H   -10.136   36.760   29.835
H   -10.641   37.921   28.634
H   -8.902   38.597   30.929
H   -11.646   39.185   31.747
H   -10.344   38.116   32.367
H   -11.487   37.537   31.151
H   -11.009   40.407   29.564
H   -9.351   40.193   28.993
H   -9.154   40.737   31.776
H   -10.462   41.792   31.380
H   -8.988   43.239   30.466
H   -8.249   42.094   29.420
H   -7.567   41.953   32.409
H   -6.639   43.924   32.680
H   -7.248   44.477   31.263
H   -5.596   43.680   31.263
H   -6.418   40.398   31.625
H   -5.225   41.702   31.140
H   -6.260   40.865   29.994
