140
20
Mg   29.774   59.140   41.173
C   26.845   57.652   39.871
C   31.490   56.384   39.807
C   32.525   60.898   41.377
C   27.857   62.005   41.763
N   29.116   57.292   39.855
C   27.988   56.919   39.471
C   27.967   55.518   38.736
C   29.449   55.032   38.964
C   30.054   56.300   39.583
C   29.709   53.757   39.856
C   27.440   55.518   37.168
C   26.112   54.902   36.857
C   25.477   55.306   35.495
O   24.279   55.575   35.300
O   26.465   55.473   34.597
N   31.812   58.638   40.825
C   32.260   57.428   40.307
C   33.713   57.484   40.308
C   34.078   58.838   40.606
C   32.826   59.559   40.968
C   34.590   56.308   39.956
C   35.465   59.459   40.386
O   36.355   58.700   40.012
C   35.713   60.891   40.478
N   30.134   61.170   41.618
C   31.372   61.622   41.775
C   31.407   63.083   42.058
C   29.856   63.524   42.324
C   29.189   62.184   41.870
C   32.247   63.423   43.316
C   29.285   64.656   41.451
C   28.656   65.801   42.263
N   27.734   59.679   41.078
C   27.130   60.903   41.391
C   25.700   60.751   41.304
C   25.547   59.432   40.688
C   26.805   58.893   40.546
C   24.717   61.844   41.629
C   24.613   58.505   40.232
O   23.393   58.557   40.234
C   25.392   57.238   39.708
C   24.971   56.133   40.571
O   25.379   55.877   41.706
O   24.054   55.361   39.899
C   23.241   54.539   40.789
C   26.025   55.996   33.270
C   27.251   56.273   32.335
C   27.195   56.697   31.039
C   25.825   57.047   30.232
C   28.470   56.868   30.236
C   28.809   58.389   30.120
C   30.071   58.785   30.860
C   30.962   59.635   29.946
C   31.809   60.574   30.842
C   31.856   58.824   28.976
C   31.753   59.293   27.508
C   32.399   58.405   26.448
C   33.342   59.242   25.408
C   32.593   59.816   24.193
C   34.529   58.373   24.966
C   35.330   57.772   26.163
C   35.209   56.228   26.169
C   36.408   55.559   26.789
C   37.437   54.921   25.835
C   36.005   54.609   27.884
H   32.013   55.463   39.541
H   33.490   61.410   41.375
H   27.262   62.865   42.078
H   27.503   54.803   39.415
H   29.951   54.776   38.031
H   30.272   54.169   40.693
H   30.285   53.002   39.321
H   28.776   53.325   40.219
H   28.212   55.007   36.592
H   27.546   56.543   36.812
H   25.431   55.113   37.681
H   26.344   53.842   36.752
H   35.104   56.379   38.997
H   34.099   55.343   40.080
H   35.193   56.144   40.850
H   34.968   61.436   39.898
H   36.678   61.153   40.043
H   35.791   61.039   41.556
H   31.795   63.567   41.162
H   29.665   63.681   43.385
H   32.302   64.501   43.465
H   33.254   63.007   43.367
H   31.690   62.990   44.146
H   28.471   64.362   40.787
H   30.134   65.111   40.943
H   29.366   66.611   42.096
H   28.705   65.564   43.325
H   27.651   66.049   41.919
H   25.104   62.735   42.125
H   23.890   61.434   42.209
H   24.305   62.114   40.657
H   25.122   57.158   38.655
H   23.761   53.876   41.482
H   22.693   53.922   40.078
H   22.634   55.302   41.276
H   25.386   56.878   33.266
H   25.424   55.257   32.740
H   28.211   56.113   32.824
H   24.895   56.888   30.778
H   25.844   56.257   29.482
H   25.797   58.044   29.792
H   28.354   56.528   29.206
H   29.243   56.250   30.693
H   28.028   58.935   30.649
H   28.775   58.711   29.079
H   30.636   57.945   31.263
H   29.666   59.435   31.635
H   30.333   60.334   29.395
H   31.507   61.616   30.741
H   32.837   60.592   30.481
H   31.829   60.204   31.867
H   31.579   57.770   28.938
H   32.922   58.904   29.187
H   32.164   60.299   27.421
H   30.707   59.398   27.220
H   31.517   58.099   25.886
H   32.818   57.504   26.895
H   33.833   60.077   25.908
H   31.530   59.647   24.360
H   32.878   59.182   23.353
H   32.649   60.871   23.925
H   35.169   59.071   24.426
H   34.339   57.577   24.246
H   34.905   58.067   27.122
H   36.292   58.266   26.029
H   35.074   55.772   25.188
H   34.304   55.972   26.720
H   37.070   56.328   27.188
H   38.300   55.573   25.703
H   37.091   54.662   24.835
H   37.742   53.930   26.169
H   36.880   54.677   28.531
H   35.826   53.599   27.516
H   35.149   55.046   28.398
