140
14
Mg   -1.373   17.972   26.779
C   -2.234   15.750   29.341
C   -2.589   20.539   28.833
C   -1.328   20.067   24.074
C   -1.199   15.252   24.506
N   -2.270   18.053   28.843
C   -2.396   17.039   29.774
C   -2.851   17.547   31.153
C   -3.366   18.982   30.751
C   -2.707   19.248   29.376
C   -4.921   19.096   30.787
C   -1.734   17.562   32.258
C   -2.160   16.984   33.601
C   -1.035   16.389   34.491
O   -0.069   15.733   34.118
O   -1.246   16.753   35.800
N   -1.638   20.019   26.573
C   -2.147   20.950   27.507
C   -2.101   22.281   26.975
C   -1.601   22.169   25.609
C   -1.492   20.708   25.366
C   -2.458   23.544   27.784
C   -1.318   23.304   24.627
O   -0.906   23.069   23.496
C   -1.345   24.766   25.008
N   -1.448   17.663   24.586
C   -1.246   18.716   23.730
C   -1.129   18.197   22.277
C   -0.714   16.740   22.502
C   -1.163   16.497   23.939
C   -2.374   18.378   21.324
C   0.796   16.464   22.293
C   1.856   16.881   23.362
N   -1.557   15.918   26.846
C   -1.396   14.930   25.869
C   -1.484   13.647   26.489
C   -1.784   13.890   27.849
C   -1.890   15.354   28.001
C   -1.290   12.304   25.848
C   -2.120   13.264   29.051
O   -2.071   12.107   29.353
C   -2.346   14.396   30.150
C   -1.251   14.249   31.088
O   -0.228   14.942   31.135
O   -1.542   13.209   31.945
C   -0.607   12.897   33.027
C   -0.196   16.345   36.786
C   -0.443   17.159   38.015
C   -0.367   16.850   39.330
C   0.136   15.517   39.886
C   -0.685   17.899   40.362
C   0.412   18.918   40.709
C   0.364   19.480   42.139
C   0.339   21.024   42.303
C   -0.967   21.665   41.777
C   1.615   21.652   41.676
C   2.368   22.720   42.536
C   3.642   22.337   43.305
C   3.544   22.275   44.777
C   4.777   22.807   45.542
C   3.270   20.827   45.339
C   2.424   20.782   46.623
C   0.911   20.433   46.439
C   -0.097   21.453   47.020
C   -1.221   20.644   47.703
C   -0.599   22.566   45.992
H   -2.968   21.298   29.520
H   -1.409   20.660   23.161
H   -0.981   14.457   23.790
H   -3.680   16.879   31.387
H   -2.969   19.680   31.489
H   -5.273   19.896   31.439
H   -5.447   18.166   31.002
H   -5.169   19.460   29.790
H   -1.391   18.550   32.563
H   -0.947   17.024   31.729
H   -2.867   16.167   33.455
H   -2.682   17.730   34.199
H   -3.139   23.252   28.583
H   -3.023   24.181   27.104
H   -1.577   24.014   28.220
H   -2.376   25.090   24.865
H   -0.716   25.404   24.386
H   -0.911   24.677   26.004
H   -0.250   18.672   21.843
H   -1.297   16.088   21.851
H   -2.962   19.241   21.635
H   -3.057   17.545   21.492
H   -2.052   18.602   20.307
H   0.984   16.913   21.318
H   0.815   15.394   22.084
H   2.821   17.218   22.986
H   1.931   16.101   24.120
H   1.570   17.792   23.887
H   -0.351   12.562   25.359
H   -2.058   12.135   25.093
H   -1.131   11.516   26.584
H   -3.216   14.337   30.805
H   -1.005   13.206   33.994
H   0.388   13.314   32.869
H   -0.398   11.832   33.137
H   0.813   16.661   36.521
H   -0.284   15.267   36.922
H   -0.849   18.157   37.847
H   0.426   14.784   39.133
H   -0.748   15.170   40.421
H   0.993   15.634   40.549
H   -1.014   17.396   41.271
H   -1.439   18.451   39.800
H   0.381   19.784   40.048
H   1.407   18.479   40.638
H   1.224   19.165   42.730
H   -0.520   19.027   42.588
H   0.336   21.295   43.359
H   -1.559   22.157   42.548
H   -1.612   20.802   41.610
H   -0.805   22.250   40.871
H   1.366   22.070   40.701
H   2.315   20.822   41.577
H   1.630   23.134   43.223
H   2.537   23.631   41.961
H   4.354   23.083   42.950
H   3.881   21.375   42.853
H   2.740   22.940   45.091
H   5.403   23.498   44.978
H   5.421   21.972   45.819
H   4.441   23.232   46.488
H   4.245   20.369   45.507
H   2.801   20.264   44.532
H   2.444   21.717   47.182
H   2.938   20.053   47.250
H   0.798   19.561   47.084
H   0.731   20.242   45.381
H   0.357   21.886   47.911
H   -0.996   20.450   48.751
H   -1.307   19.738   47.104
H   -2.185   21.150   47.643
H   -0.082   23.511   46.157
H   -1.583   22.903   46.318
H   -0.622   22.292   44.937
