140
26
Mg   8.901   2.703   27.495
C   10.415   1.063   30.327
C   7.724   5.097   29.595
C   7.640   4.220   24.883
C   10.171   0.118   25.482
N   9.015   2.969   29.761
C   9.743   2.275   30.685
C   9.489   2.824   32.048
C   8.527   4.019   31.794
C   8.466   4.101   30.228
C   7.061   3.938   32.373
C   10.765   3.086   32.888
C   10.763   4.192   34.028
C   11.429   3.989   35.355
O   12.616   4.286   35.576
O   10.620   3.435   36.336
N   7.870   4.345   27.242
C   7.405   5.253   28.219
C   6.772   6.400   27.651
C   6.792   6.136   26.247
C   7.466   4.875   26.074
C   6.150   7.558   28.446
C   6.144   6.990   25.132
O   6.361   6.746   23.921
C   5.501   8.317   25.477
N   8.834   2.258   25.501
C   8.268   3.065   24.594
C   8.270   2.513   23.120
C   9.198   1.282   23.380
C   9.426   1.215   24.875
C   6.762   1.993   22.603
C   10.597   1.433   22.680
C   10.950   0.291   21.785
N   9.959   1.007   27.803
C   10.504   0.106   26.851
C   11.121   -0.983   27.510
C   11.085   -0.602   28.808
C   10.461   0.607   28.958
C   11.598   -2.262   26.798
C   11.420   -1.167   30.104
O   11.935   -2.204   30.422
C   11.101   -0.021   31.199
C   10.246   -0.526   32.320
O   9.135   -0.994   32.217
O   11.004   -0.448   33.430
C   10.379   -1.234   34.542
C   11.257   2.827   37.487
C   10.967   3.684   38.703
C   11.293   3.682   40.015
C   12.177   2.591   40.643
C   10.829   4.811   41.071
C   9.366   4.992   41.541
C   8.858   6.493   41.538
C   9.326   7.186   42.793
C   8.303   6.816   43.925
C   9.523   8.633   42.598
C   10.778   9.233   43.227
C   10.371   10.599   43.708
C   10.650   10.869   45.214
C   10.991   12.363   45.513
C   9.575   10.182   46.082
C   9.918   8.872   46.687
C   9.040   8.643   48.025
C   8.581   7.189   48.180
C   7.099   7.110   47.621
C   8.735   6.713   49.657
H   7.482   5.842   30.355
H   7.350   4.715   23.954
H   10.664   -0.636   24.865
H   9.079   2.077   32.728
H   8.948   4.999   32.019
H   7.143   3.121   33.089
H   6.301   3.731   31.619
H   6.796   4.890   32.833
H   11.638   3.144   32.238
H   11.049   2.184   33.431
H   9.746   4.523   34.236
H   11.199   5.051   33.517
H   6.321   8.583   28.115
H   6.461   7.546   29.490
H   5.064   7.484   28.381
H   6.276   9.008   25.809
H   4.607   8.255   26.097
H   5.102   8.839   24.607
H   8.747   3.209   22.429
H   8.760   0.303   23.185
H   6.735   0.916   22.439
H   6.467   2.453   21.660
H   5.985   2.330   23.289
H   11.370   1.482   23.447
H   10.652   2.315   22.041
H   10.754   0.598   20.757
H   10.293   -0.577   21.849
H   11.948   -0.137   21.881
H   10.700   -2.766   26.440
H   11.886   -2.986   27.561
H   12.370   -2.056   26.057
H   11.976   0.365   31.721
H   9.463   -0.794   34.937
H   11.131   -1.332   35.325
H   10.230   -2.256   34.193
H   12.305   2.536   37.415
H   10.753   1.866   37.589
H   10.539   4.623   38.352
H   12.781   2.055   39.911
H   11.638   1.761   41.101
H   12.910   2.999   41.339
H   11.204   5.764   40.697
H   11.485   4.744   41.938
H   9.150   4.638   42.549
H   8.684   4.380   40.951
H   7.770   6.547   41.500
H   9.286   7.038   40.696
H   10.272   6.659   42.915
H   7.549   6.101   43.600
H   7.770   7.740   44.152
H   8.728   6.369   44.824
H   8.548   9.083   42.785
H   9.754   8.782   41.543
H   11.477   9.247   42.391
H   11.110   8.619   44.065
H   9.341   10.919   43.551
H   10.977   11.338   43.184
H   11.607   10.362   45.337
H   10.896   12.877   44.556
H   12.061   12.466   45.692
H   10.340   12.900   46.202
H   8.672   9.939   45.521
H   9.376   10.909   46.869
H   10.961   8.913   47.001
H   9.786   8.110   45.920
H   8.169   9.292   48.115
H   9.739   8.979   48.791
H   9.269   6.578   47.596
H   7.102   6.709   46.607
H   6.577   8.059   47.492
H   6.496   6.604   48.374
H   9.015   7.564   50.278
H   9.542   5.981   49.698
H   7.758   6.315   49.930
