140
33
Mg   16.250   50.897   25.274
C   18.032   49.629   27.906
C   13.627   51.754   27.484
C   14.633   52.169   22.668
C   18.901   49.801   23.114
N   15.941   50.805   27.388
C   16.903   50.398   28.302
C   16.421   50.603   29.758
C   14.895   50.875   29.556
C   14.774   51.159   28.068
C   13.920   49.777   30.051
C   17.325   51.639   30.338
C   17.329   51.848   31.866
C   16.388   51.033   32.791
O   16.608   49.939   33.292
O   15.148   51.647   32.852
N   14.371   51.951   25.117
C   13.476   52.168   26.098
C   12.377   52.924   25.530
C   12.630   52.963   24.135
C   13.902   52.380   23.895
C   11.228   53.456   26.381
C   11.827   53.620   23.101
O   12.171   53.746   21.960
C   10.449   54.156   23.467
N   16.740   50.977   23.220
C   15.828   51.536   22.384
C   16.259   51.277   20.922
C   17.729   50.784   21.130
C   17.859   50.544   22.609
C   15.309   50.313   20.178
C   18.816   51.787   20.728
C   19.643   51.469   19.375
N   18.027   49.842   25.424
C   19.009   49.496   24.512
C   20.009   48.667   25.108
C   19.662   48.783   26.457
C   18.461   49.495   26.561
C   21.150   47.940   24.527
C   20.076   48.323   27.843
O   20.927   47.548   28.209
C   19.055   48.864   28.831
C   18.454   47.638   29.409
O   17.893   46.758   28.759
O   18.524   47.671   30.790
C   17.609   46.813   31.571
C   14.148   50.911   33.595
C   12.829   51.438   33.245
C   11.607   51.274   33.773
C   11.252   50.460   35.044
C   10.380   52.036   33.257
C   10.406   53.623   33.321
C   10.874   54.290   34.629
C   9.973   55.485   35.044
C   10.782   56.705   35.457
C   9.038   55.053   36.129
C   7.680   55.813   36.135
C   7.174   56.106   37.568
C   5.979   57.093   37.460
C   6.481   58.601   37.701
C   4.842   56.646   38.469
C   3.387   57.059   38.088
C   2.810   58.113   38.990
C   1.274   58.174   38.927
C   0.807   59.622   38.519
C   0.642   57.609   40.187
H   12.845   51.901   28.231
H   14.142   52.382   21.716
H   19.629   49.346   22.440
H   16.530   49.666   30.304
H   14.739   51.848   30.023
H   13.234   50.384   30.643
H   14.405   49.053   30.705
H   13.451   49.208   29.248
H   17.137   52.619   29.900
H   18.389   51.495   30.151
H   17.303   52.927   32.021
H   18.327   51.578   32.212
H   10.978   54.508   26.245
H   11.270   53.175   27.434
H   10.368   52.879   26.041
H   10.451   54.997   24.160
H   9.889   53.274   23.777
H   10.170   54.723   22.579
H   16.289   52.249   20.430
H   17.716   49.834   20.595
H   15.834   49.693   19.451
H   14.562   50.824   19.571
H   14.782   49.620   20.833
H   19.544   51.833   21.539
H   18.366   52.778   20.785
H   19.143   51.288   18.423
H   20.462   50.776   19.570
H   20.104   52.435   19.168
H   22.096   48.451   24.705
H   20.979   47.640   23.493
H   21.133   46.989   25.059
H   19.588   49.502   29.537
H   16.957   47.521   32.083
H   18.076   46.212   32.351
H   16.911   46.239   30.961
H   14.303   50.991   34.671
H   14.227   49.893   33.212
H   12.822   52.255   32.523
H   10.310   49.916   34.979
H   11.243   51.160   35.879
H   12.113   49.805   35.178
H   9.402   51.741   33.638
H   10.102   51.711   32.254
H   9.426   53.957   32.980
H   11.078   53.889   32.505
H   11.801   54.794   34.355
H   11.071   53.642   35.482
H   9.501   55.936   34.171
H   11.727   56.466   35.945
H   10.261   57.195   36.280
H   11.179   57.231   34.589
H   9.530   54.868   37.084
H   8.774   54.027   35.875
H   6.852   55.309   35.638
H   7.768   56.778   35.636
H   8.015   56.650   37.998
H   6.941   55.200   38.127
H   5.640   57.115   36.424
H   6.070   59.115   38.570
H   6.180   59.087   36.774
H   7.563   58.688   37.794
H   5.155   56.937   39.472
H   4.905   55.561   38.561
H   2.880   56.094   38.102
H   3.489   57.357   37.044
H   3.170   59.109   38.729
H   3.110   57.867   40.008
H   1.045   57.454   38.141
H   1.415   60.439   38.909
H   -0.212   59.894   38.796
H   0.928   59.661   37.436
H   0.540   56.524   40.206
H   -0.343   58.033   40.383
H   1.188   57.798   41.111
