140
34
Mg   42.068   7.787   28.858
C   43.719   9.212   31.550
C   40.113   6.000   31.167
C   40.520   6.339   26.396
C   44.301   9.276   26.736
N   41.842   7.727   31.094
C   42.634   8.425   31.958
C   42.113   8.325   33.461
C   41.124   7.110   33.333
C   41.068   6.839   31.800
C   41.446   5.934   34.288
C   41.592   9.610   34.154
C   40.932   9.469   35.565
C   41.202   10.560   36.642
O   42.133   11.422   36.590
O   40.345   10.387   37.697
N   40.428   6.520   28.793
C   39.754   5.875   29.800
C   38.681   5.118   29.332
C   38.730   5.275   27.891
C   39.937   6.033   27.616
C   37.747   4.366   30.198
C   37.785   4.704   26.839
O   37.895   4.968   25.652
C   36.551   3.972   27.292
N   42.397   7.725   26.895
C   41.510   7.162   26.032
C   42.035   7.178   24.592
C   43.180   8.247   24.667
C   43.346   8.404   26.185
C   42.488   5.803   23.997
C   42.796   9.691   24.086
C   41.475   10.412   24.634
N   43.767   8.939   29.066
C   44.585   9.478   28.141
C   45.627   10.267   28.759
C   45.269   10.234   30.094
C   44.212   9.304   30.224
C   46.797   10.972   28.140
C   45.709   10.731   31.419
O   46.613   11.483   31.734
C   44.687   10.066   32.339
C   45.432   9.313   33.392
O   46.276   8.430   33.252
O   44.975   9.720   34.577
C   45.486   9.193   35.839
C   40.836   11.217   38.780
C   40.437   10.587   40.134
C   40.900   10.866   41.356
C   41.953   11.866   41.790
C   40.254   9.983   42.467
C   39.402   10.553   43.545
C   38.010   9.938   43.783
C   37.607   9.732   45.255
C   38.099   8.396   45.801
C   36.056   9.899   45.395
C   35.681   10.300   46.842
C   35.688   11.835   47.228
C   34.333   12.559   47.373
C   33.443   12.082   48.513
C   33.517   12.603   46.148
C   34.123   13.540   45.131
C   33.115   14.520   44.457
C   33.257   16.035   44.909
C   32.444   16.206   46.155
C   33.067   17.144   43.880
H   39.478   5.471   31.881
H   40.033   5.918   25.514
H   44.882   9.842   26.005
H   42.981   8.046   34.058
H   40.146   7.468   33.654
H   41.562   5.039   33.676
H   40.713   5.839   35.088
H   42.311   6.145   34.918
H   40.884   10.070   33.465
H   42.435   10.280   34.320
H   41.242   8.587   36.125
H   39.851   9.372   35.463
H   37.899   3.319   29.935
H   36.740   4.666   29.907
H   37.871   4.460   31.277
H   35.998   3.489   26.487
H   35.885   4.774   27.607
H   36.666   3.191   28.044
H   41.290   7.602   23.919
H   44.075   7.870   24.172
H   42.066   5.026   24.635
H   43.562   5.660   24.116
H   42.106   5.657   22.987
H   42.501   9.621   23.039
H   43.637   10.385   24.095
H   41.635   11.489   24.692
H   41.373   10.053   25.658
H   40.590   10.219   24.029
H   47.045   11.814   28.786
H   46.558   11.399   27.166
H   47.716   10.386   28.149
H   44.223   10.874   32.903
H   46.052   8.284   35.637
H   44.707   9.058   36.589
H   46.173   9.915   36.282
H   40.279   12.143   38.642
H   41.881   11.514   38.870
H   39.824   9.698   39.988
H   42.246   12.449   40.917
H   42.837   11.394   42.220
H   41.549   12.588   42.499
H   41.089   9.489   42.962
H   39.650   9.192   42.023
H   39.377   11.636   43.427
H   40.021   10.596   44.441
H   37.906   8.975   43.284
H   37.257   10.593   43.345
H   38.099   10.598   45.698
H   39.135   8.501   46.124
H   38.144   7.653   45.006
H   37.429   8.069   46.596
H   35.533   9.039   44.977
H   35.714   10.728   44.776
H   36.273   9.880   47.655
H   34.612   10.117   46.957
H   36.266   12.282   46.418
H   36.201   12.057   48.164
H   34.688   13.573   47.556
H   33.122   12.868   49.196
H   33.935   11.295   49.084
H   32.574   11.557   48.117
H   32.436   12.717   46.226
H   33.615   11.663   45.604
H   34.532   13.064   44.240
H   34.982   14.060   45.555
H   32.110   14.126   44.614
H   33.229   14.528   43.373
H   34.284   16.089   45.272
H   31.674   16.975   46.100
H   33.140   16.427   46.964
H   32.015   15.233   46.394
H   34.097   17.438   43.680
H   32.498   18.018   44.198
H   32.521   16.734   43.030
