140
31
Mg   1.904   7.718   26.551
C   2.491   9.510   29.459
C   2.012   4.851   28.377
C   2.071   6.208   23.674
C   2.394   10.831   24.716
N   2.030   7.259   28.820
C   2.352   8.137   29.811
C   2.352   7.397   31.189
C   2.276   5.911   30.685
C   2.089   5.997   29.186
C   3.498   5.009   31.029
C   1.099   7.886   32.059
C   1.398   7.979   33.576
C   2.360   7.061   34.097
O   3.466   7.346   34.534
O   1.865   5.810   33.987
N   1.944   5.776   26.092
C   1.893   4.722   26.960
C   1.988   3.546   26.151
C   1.862   3.905   24.816
C   1.989   5.384   24.795
C   2.064   2.177   26.773
C   1.771   2.999   23.644
O   1.712   3.466   22.535
C   1.918   1.455   23.788
N   1.899   8.421   24.404
C   2.009   7.531   23.452
C   2.347   8.215   22.081
C   2.088   9.697   22.399
C   2.106   9.695   23.934
C   3.763   7.866   21.609
C   0.719   10.360   21.953
C   0.938   11.762   21.336
N   2.382   9.685   26.892
C   2.502   10.869   26.110
C   2.808   11.998   26.946
C   2.885   11.537   28.227
C   2.544   10.147   28.200
C   2.830   13.544   26.575
C   3.100   11.928   29.597
O   3.566   12.984   30.048
C   2.688   10.661   30.478
C   3.811   10.403   31.376
O   4.638   9.555   31.177
O   3.795   11.368   32.404
C   4.945   11.405   33.363
C   2.564   4.633   34.604
C   1.617   4.074   35.709
C   1.353   4.534   36.980
C   1.945   5.873   37.495
C   0.835   3.512   38.064
C   1.599   2.138   38.157
C   0.823   0.805   38.070
C   0.803   0.004   39.423
C   -0.580   -0.697   39.705
C   2.072   -0.974   39.409
C   2.464   -1.451   40.845
C   3.986   -1.635   41.012
C   4.358   -3.148   41.218
C   5.977   -3.023   41.445
C   4.078   -4.209   40.124
C   3.408   -5.482   40.691
C   3.206   -6.552   39.537
C   2.830   -7.946   40.087
C   4.087   -8.987   39.916
C   1.594   -8.498   39.367
H   2.074   3.886   28.884
H   2.276   5.620   22.777
H   2.542   11.744   24.134
H   3.293   7.614   31.694
H   1.474   5.390   31.209
H   4.305   5.589   31.476
H   3.922   4.374   30.251
H   3.185   4.371   31.856
H   0.224   7.288   31.807
H   0.821   8.892   31.745
H   0.486   7.884   34.165
H   1.775   8.964   33.850
H   2.234   2.234   27.848
H   2.803   1.473   26.389
H   1.047   1.789   26.719
H   2.894   1.127   24.145
H   1.712   1.092   22.781
H   1.025   1.144   24.330
H   1.666   7.963   21.268
H   2.874   10.241   21.875
H   3.976   6.798   21.572
H   4.473   8.324   22.298
H   3.849   8.309   20.617
H   0.008   10.555   22.756
H   0.224   9.795   21.163
H   1.125   11.605   20.274
H   1.837   12.268   21.687
H   0.106   12.451   21.480
H   3.013   13.576   25.501
H   3.727   13.953   27.041
H   1.946   14.136   26.811
H   1.733   10.822   30.979
H   4.799   10.854   34.293
H   5.039   12.457   33.634
H   5.838   11.080   32.830
H   3.524   5.033   34.930
H   2.737   3.830   33.887
H   1.347   3.076   35.363
H   2.869   6.083   36.956
H   2.310   5.987   38.516
H   1.253   6.704   37.362
H   -0.187   3.309   37.743
H   0.855   4.015   39.030
H   2.115   2.130   39.117
H   2.335   2.169   37.354
H   1.277   0.176   37.305
H   -0.241   1.026   37.979
H   0.957   0.696   40.251
H   -0.462   -1.773   39.583
H   -1.222   -0.372   38.886
H   -1.120   -0.407   40.606
H   2.894   -0.476   38.895
H   1.801   -1.917   38.934
H   1.986   -2.403   41.076
H   2.102   -0.703   41.551
H   4.272   -1.075   41.902
H   4.515   -1.123   40.207
H   3.955   -3.404   42.198
H   6.165   -3.191   42.506
H   6.394   -2.049   41.191
H   6.508   -3.821   40.926
H   5.028   -4.521   39.690
H   3.482   -3.691   39.373
H   2.479   -5.068   41.083
H   4.109   -5.872   41.429
H   4.139   -6.662   38.984
H   2.579   -6.101   38.768
H   2.408   -7.824   41.085
H   3.891   -9.690   39.106
H   4.135   -9.685   40.751
H   4.977   -8.418   39.648
H   0.848   -8.882   40.063
H   1.803   -9.231   38.588
H   1.065   -7.729   38.805
