140
33
Mg   34.724   48.690   25.544
C   34.981   46.985   28.561
C   33.043   51.224   27.254
C   34.177   50.166   22.706
C   36.099   45.849   23.918
N   33.995   48.956   27.644
C   34.322   48.208   28.696
C   33.891   48.879   30.006
C   33.000   50.023   29.514
C   33.354   50.075   28.059
C   31.461   49.867   29.815
C   35.102   49.359   30.924
C   34.983   48.975   32.396
C   33.656   49.126   33.017
O   33.079   48.356   33.768
O   33.118   50.342   32.660
N   33.704   50.378   25.031
C   33.191   51.364   25.880
C   32.624   52.480   25.145
C   32.926   52.143   23.837
C   33.671   50.869   23.787
C   31.979   53.772   25.643
C   32.633   52.915   22.612
O   33.163   52.764   21.472
C   31.751   54.191   22.651
N   35.269   48.138   23.630
C   34.928   48.960   22.619
C   35.344   48.377   21.248
C   36.147   47.049   21.699
C   35.799   47.020   23.189
C   34.164   48.100   20.313
C   37.706   46.939   21.492
C   38.455   47.893   20.561
N   35.447   46.732   26.082
C   35.957   45.739   25.374
C   36.384   44.693   26.237
C   36.042   45.108   27.541
C   35.383   46.360   27.337
C   36.960   43.328   25.808
C   36.106   44.807   28.908
O   36.469   43.740   29.478
C   35.491   46.022   29.681
C   34.440   45.584   30.672
O   33.241   45.608   30.493
O   35.029   45.055   31.816
C   34.204   44.644   32.984
C   31.875   50.693   33.337
C   31.509   52.144   33.420
C   30.420   52.652   34.062
C   29.285   51.814   34.787
C   30.361   54.177   34.316
C   31.574   54.675   35.283
C   31.883   56.215   34.888
C   31.669   57.152   36.093
C   33.066   57.694   36.603
C   30.767   58.412   35.806
C   29.311   58.025   36.299
C   28.757   59.019   37.329
C   28.583   60.519   36.905
C   29.700   61.519   37.319
C   27.216   61.060   37.206
C   26.688   62.104   36.200
C   27.015   63.593   36.578
C   25.747   64.423   36.746
C   26.127   65.948   36.697
C   25.231   64.215   38.229
H   32.605   52.036   27.838
H   34.144   50.640   21.723
H   36.449   44.960   23.390
H   33.296   48.240   30.659
H   33.283   50.981   29.950
H   31.172   50.828   30.239
H   31.245   49.175   30.630
H   30.908   49.465   28.966
H   35.217   50.428   30.743
H   36.021   48.990   30.470
H   35.779   49.534   32.886
H   35.136   47.899   32.479
H   30.930   53.835   25.352
H   32.528   54.632   25.260
H   32.051   53.801   26.731
H   32.200   55.082   23.090
H   30.777   53.988   23.095
H   31.602   54.477   21.610
H   35.951   49.106   20.710
H   35.644   46.221   21.200
H   33.363   47.646   20.896
H   34.439   47.435   19.495
H   33.704   49.016   19.941
H   38.011   45.958   21.129
H   38.133   47.057   22.488
H   37.795   48.261   19.776
H   39.277   47.345   20.099
H   38.876   48.792   21.010
H   36.315   42.602   25.313
H   37.531   42.894   26.629
H   37.734   43.520   25.066
H   36.417   46.326   30.168
H   33.655   43.730   32.758
H   33.701   45.552   33.316
H   34.890   44.327   33.770
H   31.841   50.291   34.350
H   31.061   50.311   32.722
H   32.165   52.907   33.002
H   28.335   51.980   34.280
H   29.292   52.171   35.817
H   29.522   50.750   34.781
H   29.434   54.632   34.663
H   30.386   54.570   33.299
H   32.538   54.215   35.065
H   31.404   54.667   36.359
H   31.203   56.585   34.120
H   32.913   56.388   34.577
H   31.362   56.698   37.035
H   33.006   57.794   37.687
H   33.161   58.690   36.170
H   33.967   57.179   36.270
H   30.588   58.693   34.768
H   31.099   59.273   36.387
H   29.279   57.000   36.669
H   28.690   58.036   35.403
H   29.468   59.091   38.152
H   27.852   58.724   37.862
H   28.687   60.408   35.825
H   30.165   61.908   36.413
H   30.527   61.062   37.862
H   29.348   62.439   37.786
H   27.162   61.558   38.174
H   26.436   60.308   37.321
H   25.613   61.980   36.073
H   27.210   61.801   35.292
H   27.650   63.980   35.781
H   27.577   63.670   37.509
H   25.025   64.125   35.986
H   25.666   66.267   35.762
H   27.203   66.102   36.613
H   25.865   66.615   37.518
H   24.187   64.456   38.027
H   25.650   64.895   38.971
H   25.331   63.219   38.659
