140
29
Mg   25.337   50.881   26.437
C   23.359   51.991   29.144
C   27.512   49.545   28.642
C   27.459   50.248   23.884
C   23.117   52.395   24.313
N   25.573   51.001   28.698
C   24.594   51.451   29.571
C   25.011   51.151   31.019
C   26.407   50.305   30.863
C   26.552   50.354   29.307
C   27.616   50.771   31.713
C   23.848   50.503   31.868
C   24.370   49.929   33.206
C   24.282   50.799   34.483
O   24.191   52.046   34.482
O   24.374   50.029   35.663
N   27.118   49.895   26.286
C   27.807   49.325   27.310
C   28.863   48.490   26.789
C   28.874   48.741   25.387
C   27.801   49.704   25.117
C   29.804   47.703   27.721
C   29.647   48.147   24.370
O   29.667   48.405   23.140
C   30.662   47.116   24.788
N   25.363   51.438   24.383
C   26.284   50.982   23.562
C   26.008   51.384   22.109
C   24.555   51.951   22.241
C   24.265   51.876   23.715
C   27.048   52.363   21.458
C   23.587   51.145   21.390
C   23.158   49.677   21.819
N   23.643   51.973   26.636
C   22.785   52.493   25.660
C   21.560   52.975   26.197
C   21.664   52.677   27.581
C   23.031   52.213   27.798
C   20.398   53.470   25.428
C   21.072   52.920   28.851
O   19.948   53.363   29.083
C   22.073   52.393   29.947
C   22.270   53.507   30.866
O   23.291   54.149   30.851
O   21.181   53.803   31.640
C   21.486   54.760   32.663
C   24.561   50.899   36.882
C   24.617   49.974   38.027
C   25.309   50.030   39.202
C   26.205   51.194   39.664
C   25.317   48.735   40.124
C   26.238   47.540   39.730
C   25.595   46.165   39.882
C   25.943   45.421   41.167
C   26.096   43.906   40.945
C   24.899   45.760   42.351
C   25.570   45.943   43.721
C   25.029   47.166   44.594
C   25.907   47.629   45.785
C   25.359   47.163   47.171
C   25.965   49.140   45.829
C   27.189   49.799   45.150
C   26.797   50.888   44.143
C   26.950   52.318   44.742
C   25.570   52.982   44.971
C   27.835   53.248   43.863
H   28.148   49.082   29.399
H   28.023   49.996   22.984
H   22.432   52.824   23.580
H   25.170   52.184   31.328
H   26.177   49.249   31.004
H   27.219   51.558   32.354
H   28.356   51.255   31.075
H   28.081   49.937   32.237
H   23.324   49.725   31.314
H   23.137   51.282   32.146
H   25.429   49.670   33.226
H   23.934   48.932   33.260
H   29.646   46.651   27.482
H   29.479   47.752   28.760
H   30.790   48.046   27.407
H   31.423   47.598   25.402
H   31.034   46.692   23.856
H   30.120   46.297   25.262
H   26.098   50.501   21.475
H   24.555   52.931   21.763
H   27.879   52.538   22.141
H   26.711   53.375   21.234
H   27.504   51.941   20.562
H   23.924   51.134   20.353
H   22.659   51.713   21.321
H   22.189   49.788   22.307
H   23.977   49.346   22.457
H   23.176   49.064   20.918
H   19.478   53.655   25.983
H   20.058   52.704   24.731
H   20.634   54.283   24.742
H   21.660   51.517   30.446
H   21.771   55.731   32.258
H   22.284   54.541   33.373
H   20.605   54.890   33.291
H   23.798   51.677   36.929
H   25.540   51.365   36.769
H   24.109   49.037   37.797
H   26.125   52.058   39.004
H   27.205   50.764   39.598
H   25.946   51.387   40.704
H   24.277   48.439   40.265
H   25.622   49.065   41.117
H   27.194   47.563   40.253
H   26.540   47.746   38.704
H   26.077   45.687   39.030
H   24.523   46.261   39.711
H   26.917   45.764   41.516
H   25.812   43.379   41.856
H   27.160   43.714   40.813
H   25.668   43.487   40.035
H   24.239   44.893   42.310
H   24.252   46.604   42.116
H   26.654   46.041   43.652
H   25.459   45.009   44.272
H   24.078   46.818   44.997
H   24.796   47.978   43.904
H   26.860   47.113   45.671
H   25.405   46.075   47.195
H   24.327   47.500   47.265
H   25.795   47.550   48.092
H   26.080   49.411   46.879
H   24.998   49.589   45.604
H   27.756   49.060   44.585
H   27.923   50.174   45.864
H   25.790   50.809   43.733
H   27.408   50.809   43.244
H   27.472   52.346   45.698
H   25.267   53.306   43.975
H   25.758   53.854   45.597
H   24.810   52.384   45.474
H   27.983   52.892   42.843
H   28.813   53.332   44.337
H   27.584   54.308   43.896
