140
14
Mg   -10.305   40.432   43.096
C   -8.845   37.556   41.775
C   -7.796   42.338   41.504
C   -12.052   43.181   43.678
C   -12.850   38.421   44.150
N   -8.582   40.020   41.639
C   -8.219   38.741   41.228
C   -7.051   38.803   40.221
C   -6.699   40.343   40.243
C   -7.724   40.938   41.221
C   -5.272   40.636   40.753
C   -7.264   38.201   38.738
C   -6.518   36.914   38.377
C   -5.454   36.850   37.316
O   -4.281   36.937   37.501
O   -6.065   36.562   36.084
N   -9.894   42.481   42.799
C   -8.815   43.030   42.174
C   -8.982   44.504   42.108
C   -10.234   44.728   42.706
C   -10.768   43.449   43.131
C   -8.011   45.442   41.321
C   -10.936   46.139   42.673
O   -10.338   47.186   42.361
C   -12.242   46.415   43.099
N   -12.173   40.737   43.888
C   -12.699   42.044   44.088
C   -14.080   41.969   44.739
C   -14.414   40.439   44.744
C   -13.081   39.792   44.152
C   -13.986   42.561   46.155
C   -15.646   40.340   43.816
C   -17.039   40.407   44.512
N   -10.731   38.357   43.130
C   -11.749   37.680   43.607
C   -11.691   36.274   43.419
C   -10.506   36.168   42.668
C   -10.014   37.448   42.519
C   -12.618   35.293   43.966
C   -9.553   35.326   42.037
O   -9.496   34.097   42.032
C   -8.490   36.142   41.455
C   -7.297   35.737   42.203
O   -7.060   36.081   43.356
O   -6.480   34.884   41.471
C   -5.168   34.604   42.152
C   -5.176   36.142   35.015
C   -5.828   36.449   33.690
C   -5.553   37.402   32.747
C   -4.708   38.636   32.766
C   -6.377   37.323   31.463
C   -5.654   36.824   30.217
C   -6.504   36.776   28.925
C   -6.160   38.012   28.004
C   -5.226   37.640   26.875
C   -7.512   38.598   27.382
C   -7.944   39.755   28.335
C   -9.484   39.975   28.302
C   -10.101   39.449   29.613
C   -11.302   38.505   29.373
C   -10.384   40.663   30.610
C   -9.213   40.929   31.586
C   -8.513   42.285   31.497
C   -6.928   42.167   31.483
C   -6.267   43.092   32.576
C   -6.313   42.497   30.215
H   -6.987   42.909   41.042
H   -12.770   44.002   43.731
H   -13.670   37.772   44.465
H   -6.282   38.212   40.717
H   -6.863   40.825   39.279
H   -4.589   40.820   39.923
H   -4.930   39.860   41.437
H   -5.231   41.611   41.240
H   -6.888   38.959   38.051
H   -8.310   37.960   38.545
H   -7.326   36.261   38.044
H   -6.100   36.500   39.294
H   -8.502   45.709   40.386
H   -7.135   44.870   41.015
H   -7.684   46.267   41.955
H   -12.288   46.148   44.155
H   -13.029   45.808   42.652
H   -12.545   47.435   42.863
H   -14.799   42.559   44.171
H   -14.591   40.220   45.796
H   -14.926   43.095   46.295
H   -13.167   43.276   46.226
H   -13.843   41.795   46.918
H   -15.635   39.310   43.460
H   -15.614   40.984   42.937
H   -17.640   39.560   44.181
H   -17.526   41.321   44.173
H   -17.047   40.455   45.601
H   -13.653   35.459   43.665
H   -12.582   35.243   45.054
H   -12.199   34.317   43.721
H   -8.238   35.917   40.419
H   -5.184   34.122   43.129
H   -4.682   35.579   42.127
H   -4.647   34.061   41.363
H   -5.046   35.062   35.068
H   -4.194   36.614   34.990
H   -6.593   35.757   33.337
H   -5.339   39.494   32.996
H   -4.216   38.657   31.794
H   -4.029   38.539   33.613
H   -6.819   38.268   31.148
H   -7.293   36.756   31.631
H   -5.269   35.826   30.428
H   -4.726   37.369   30.044
H   -7.570   36.695   29.139
H   -6.256   35.885   28.348
H   -5.630   38.782   28.564
H   -4.504   36.878   27.168
H   -4.605   38.489   26.588
H   -5.723   37.360   25.946
H   -8.200   37.754   27.335
H   -7.442   39.098   26.416
H   -7.474   40.667   27.969
H   -7.476   39.543   29.296
H   -9.882   39.403   27.464
H   -9.753   41.014   28.109
H   -9.371   38.789   30.082
H   -10.919   37.485   29.403
H   -11.646   38.703   28.357
H   -12.132   38.581   30.075
H   -11.147   40.266   31.280
H   -10.753   41.575   30.140
H   -8.423   40.200   31.406
H   -9.469   40.656   32.610
H   -8.790   42.875   32.371
H   -8.941   42.746   30.608
H   -6.678   41.149   31.783
H   -5.737   43.998   32.281
H   -5.578   42.578   33.248
H   -7.025   43.429   33.283
H   -7.034   42.399   29.404
H   -5.588   41.717   29.984
H   -5.887   43.499   30.156
