140
34
Mg   1.174   8.014   26.205
C   1.977   9.982   29.027
C   1.237   5.225   28.291
C   0.755   6.087   23.578
C   1.461   10.778   24.213
N   1.673   7.669   28.404
C   1.821   8.609   29.401
C   1.886   7.990   30.820
C   1.783   6.467   30.583
C   1.586   6.435   28.968
C   2.999   5.555   30.929
C   0.795   8.603   31.760
C   1.271   9.076   33.111
C   2.172   8.059   33.898
O   3.397   8.052   33.845
O   1.422   7.181   34.641
N   1.118   5.926   25.934
C   1.114   4.955   26.935
C   0.901   3.637   26.357
C   0.732   3.897   24.950
C   0.803   5.337   24.720
C   0.640   2.362   27.224
C   0.277   2.910   23.802
O   -0.002   3.276   22.662
C   0.199   1.476   24.131
N   1.353   8.345   24.209
C   0.969   7.441   23.313
C   0.874   8.016   21.850
C   1.057   9.499   22.113
C   1.290   9.575   23.603
C   1.950   7.385   20.907
C   -0.045   10.520   21.574
C   0.631   11.581   20.651
N   1.440   10.051   26.510
C   1.560   11.093   25.625
C   1.734   12.362   26.407
C   1.951   11.942   27.763
C   1.780   10.542   27.750
C   1.875   13.755   25.782
C   2.303   12.422   29.158
O   2.631   13.512   29.563
C   2.250   11.122   29.997
C   3.504   11.044   30.819
O   4.528   10.427   30.545
O   3.400   11.853   31.951
C   4.366   11.640   33.006
C   2.228   6.351   35.517
C   1.342   5.608   36.595
C   1.312   5.523   37.930
C   2.418   6.065   38.815
C   0.269   4.695   38.711
C   0.787   3.272   38.956
C   -0.242   2.271   38.404
C   -0.198   0.877   39.088
C   -1.377   -0.138   38.609
C   1.241   0.259   38.720
C   1.961   0.006   40.086
C   3.322   -0.713   39.902
C   3.261   -2.244   40.111
C   4.616   -2.661   40.855
C   3.212   -3.034   38.816
C   1.964   -3.904   38.751
C   2.074   -5.048   37.708
C   1.807   -4.604   36.262
C   0.594   -5.391   35.627
C   3.112   -4.989   35.412
H   1.216   4.387   28.990
H   0.595   5.625   22.602
H   1.432   11.692   23.617
H   2.878   8.294   31.156
H   0.832   6.113   30.982
H   3.611   6.064   31.674
H   3.538   5.468   29.985
H   2.691   4.585   31.319
H   0.097   7.817   32.049
H   0.204   9.429   31.364
H   0.350   9.346   33.627
H   1.915   9.954   33.062
H   -0.441   2.276   27.339
H   1.239   2.381   28.134
H   1.076   1.542   26.653
H   1.172   1.035   24.347
H   -0.328   0.941   23.341
H   -0.482   1.379   24.977
H   -0.127   7.734   21.523
H   2.007   9.810   21.678
H   1.667   6.503   20.334
H   2.967   7.250   21.277
H   2.151   8.057   20.073
H   -0.607   10.997   22.377
H   -0.655   9.910   20.908
H   0.038   12.488   20.766
H   0.449   11.258   19.625
H   1.689   11.633   20.907
H   2.656   14.302   26.311
H   0.906   14.198   26.012
H   2.073   13.620   24.719
H   1.502   11.247   30.780
H   5.381   11.475   32.643
H   4.123   10.788   33.640
H   4.418   12.527   33.637
H   2.697   7.213   35.992
H   2.921   5.709   34.973
H   0.452   5.158   36.155
H   2.159   7.030   39.251
H   3.355   6.132   38.263
H   2.589   5.330   39.603
H   -0.676   4.705   38.169
H   0.109   5.200   39.664
H   0.979   3.129   40.020
H   1.695   3.082   38.384
H   -0.092   2.173   37.328
H   -1.226   2.677   38.636
H   -0.336   0.845   40.168
H   -1.167   -0.413   37.575
H   -2.308   0.402   38.782
H   -1.457   -1.084   39.145
H   1.790   0.788   37.940
H   0.964   -0.757   38.441
H   1.318   -0.304   40.910
H   2.275   0.989   40.438
H   4.080   -0.288   40.560
H   3.759   -0.566   38.915
H   2.395   -2.330   40.767
H   4.796   -3.734   40.792
H   4.650   -2.304   41.884
H   5.438   -2.094   40.418
H   4.077   -3.693   38.747
H   3.333   -2.413   37.929
H   1.167   -3.216   38.469
H   1.635   -4.353   39.688
H   1.434   -5.863   38.045
H   3.092   -5.438   37.727
H   1.593   -3.548   36.097
H   0.481   -6.387   36.053
H   0.667   -5.393   34.539
H   -0.247   -4.710   35.755
H   3.949   -4.524   35.934
H   3.174   -4.492   34.443
H   3.277   -6.062   35.311
