140
18
Mg   16.795   -2.454   27.841
C   16.332   -0.250   30.490
C   18.321   -4.710   29.922
C   17.597   -4.182   25.110
C   15.472   0.144   25.719
N   17.194   -2.472   29.969
C   17.099   -1.424   30.794
C   17.736   -1.780   32.141
C   18.312   -3.223   31.998
C   17.902   -3.491   30.530
C   19.907   -3.255   32.252
C   16.580   -1.918   33.221
C   16.794   -1.214   34.582
C   18.157   -1.244   35.196
O   19.017   -0.410   34.977
O   18.325   -2.270   36.014
N   17.612   -4.315   27.573
C   18.140   -5.104   28.573
C   18.479   -6.390   28.014
C   18.423   -6.180   26.555
C   17.822   -4.874   26.313
C   18.894   -7.581   28.787
C   18.721   -7.213   25.421
O   18.448   -7.021   24.221
C   19.340   -8.519   25.804
N   16.615   -2.040   25.666
C   17.089   -2.903   24.765
C   17.007   -2.325   23.355
C   16.160   -1.035   23.530
C   16.112   -0.931   25.104
C   18.450   -2.118   22.696
C   14.732   -1.178   22.971
C   14.221   0.126   22.238
N   15.982   -0.521   28.033
C   15.431   0.390   27.099
C   15.048   1.577   27.756
C   15.278   1.327   29.143
C   15.899   0.073   29.212
C   14.497   2.804   27.094
C   15.198   1.922   30.464
O   14.690   2.995   30.782
C   15.967   0.900   31.461
C   17.108   1.524   32.084
O   18.250   1.536   31.635
O   16.715   2.260   33.182
C   17.691   3.206   33.784
C   19.637   -2.395   36.580
C   19.499   -3.219   37.926
C   19.567   -2.787   39.229
C   19.451   -1.357   39.714
C   19.727   -3.705   40.419
C   21.110   -4.341   40.520
C   21.118   -5.892   40.520
C   22.122   -6.566   39.531
C   21.876   -8.144   39.361
C   23.628   -6.189   39.964
C   24.156   -6.774   41.313
C   25.605   -7.318   41.246
C   26.341   -7.413   42.578
C   27.691   -6.814   42.665
C   26.560   -8.943   43.086
C   25.237   -9.595   43.298
C   24.969   -10.846   42.451
C   23.617   -11.478   42.806
C   22.652   -11.386   41.591
C   23.698   -12.879   43.479
H   18.706   -5.389   30.686
H   17.844   -4.723   24.195
H   14.926   0.848   25.087
H   18.572   -1.229   32.571
H   17.820   -4.044   32.518
H   20.414   -3.505   31.321
H   20.210   -4.032   32.953
H   20.285   -2.306   32.632
H   16.328   -2.975   33.311
H   15.628   -1.501   32.892
H   16.207   -1.854   35.241
H   16.438   -0.186   34.645
H   18.917   -7.496   29.874
H   19.930   -7.794   28.526
H   18.264   -8.409   28.460
H   20.370   -8.408   26.143
H   19.416   -9.046   24.853
H   18.805   -9.101   26.555
H   16.485   -3.033   22.712
H   16.662   -0.153   23.133
H   18.660   -1.050   22.623
H   18.505   -2.580   21.710
H   19.276   -2.645   23.175
H   14.147   -1.397   23.865
H   14.683   -1.934   22.188
H   13.757   0.777   22.979
H   13.566   -0.186   21.425
H   15.045   0.609   21.713
H   13.682   3.181   27.713
H   14.088   2.541   26.119
H   15.197   3.623   26.931
H   15.217   0.753   32.238
H   18.091   2.711   34.669
H   17.220   4.145   34.074
H   18.501   3.565   33.149
H   20.159   -1.452   36.741
H   20.236   -2.997   35.896
H   19.422   -4.290   37.737
H   18.619   -1.169   40.393
H   19.410   -0.625   38.907
H   20.344   -1.041   40.252
H   19.070   -4.564   40.279
H   19.487   -3.212   41.362
H   21.641   -3.971   41.397
H   21.638   -3.947   39.652
H   20.174   -6.414   40.359
H   21.322   -6.016   41.584
H   22.043   -6.061   38.568
H   21.102   -8.385   40.090
H   22.773   -8.663   39.698
H   21.513   -8.353   38.354
H   23.921   -5.144   39.861
H   24.162   -6.728   39.182
H   23.456   -7.532   41.665
H   24.162   -6.006   42.086
H   26.160   -6.662   40.575
H   25.591   -8.284   40.741
H   25.636   -6.909   43.240
H   28.238   -7.090   43.566
H   27.507   -5.755   42.849
H   28.289   -7.024   41.778
H   27.039   -8.957   44.065
H   27.248   -9.438   42.400
H   24.464   -8.828   43.256
H   25.203   -9.945   44.330
H   25.830   -11.509   42.544
H   24.882   -10.393   41.464
H   23.194   -10.861   43.598
H   22.091   -10.453   41.645
H   21.931   -12.200   41.668
H   23.136   -11.514   40.623
H   22.758   -13.391   43.685
H   24.093   -12.734   44.484
H   24.324   -13.542   42.882
