140
37
Mg   26.376   0.169   29.401
C   28.218   -0.546   32.329
C   23.695   0.690   31.189
C   24.840   0.968   26.519
C   29.241   -0.794   27.532
N   26.035   -0.028   31.541
C   26.918   -0.130   32.534
C   26.175   0.101   33.879
C   24.678   0.368   33.529
C   24.760   0.218   31.979
C   23.728   -0.633   34.203
C   26.901   1.222   34.772
C   26.030   1.602   35.990
C   26.795   2.207   37.199
O   27.363   3.278   37.217
O   26.773   1.312   38.268
N   24.453   0.742   28.983
C   23.410   0.816   29.832
C   22.209   1.133   29.102
C   22.546   1.306   27.740
C   24.034   1.054   27.720
C   20.901   1.079   29.863
C   21.677   1.553   26.490
O   22.161   1.717   25.359
C   20.207   1.474   26.650
N   26.995   -0.017   27.325
C   26.125   0.548   26.381
C   26.835   0.627   25.006
C   28.283   0.060   25.307
C   28.160   -0.345   26.809
C   26.127   -0.255   23.860
C   29.372   1.041   25.013
C   30.816   0.515   24.647
N   28.334   -0.676   29.771
C   29.299   -1.006   28.895
C   30.479   -1.510   29.619
C   30.155   -1.300   31.030
C   28.800   -0.765   31.029
C   31.816   -1.918   29.087
C   30.594   -1.365   32.427
O   31.693   -1.585   32.926
C   29.354   -0.873   33.293
C   29.019   -1.840   34.288
O   28.323   -2.833   34.129
O   29.671   -1.495   35.428
C   29.841   -2.559   36.479
C   27.556   1.742   39.479
C   26.738   1.653   40.771
C   27.211   1.520   42.056
C   28.704   1.343   42.389
C   26.309   1.237   43.203
C   25.696   2.486   43.962
C   24.208   2.411   44.175
C   23.660   2.282   45.588
C   22.756   1.071   45.837
C   22.935   3.527   46.091
C   23.243   3.936   47.484
C   22.078   4.756   48.107
C   22.369   6.064   48.875
C   23.035   5.668   50.238
C   21.191   7.032   49.103
C   21.737   8.510   49.133
C   21.523   9.255   47.762
C   22.729   9.294   46.775
C   22.873   10.653   46.158
C   22.767   8.205   45.720
H   22.839   0.991   31.797
H   24.504   1.536   25.650
H   30.157   -1.007   26.976
H   26.375   -0.808   34.446
H   24.350   1.381   33.761
H   23.979   -0.675   35.263
H   23.761   -1.657   33.833
H   22.701   -0.294   34.069
H   27.195   2.112   34.216
H   27.824   0.809   35.181
H   25.388   0.782   36.312
H   25.416   2.379   35.535
H   20.252   0.350   29.377
H   20.543   2.108   29.850
H   20.972   0.787   30.911
H   19.906   0.554   27.151
H   19.759   1.516   25.658
H   19.800   2.344   27.166
H   26.819   1.644   24.614
H   28.464   -0.839   24.717
H   25.826   -1.208   24.294
H   26.910   -0.501   23.142
H   25.307   0.307   23.412
H   29.407   1.748   25.842
H   28.995   1.598   24.155
H   31.148   1.230   23.894
H   30.798   -0.541   24.381
H   31.469   0.537   25.519
H   32.057   -1.200   28.302
H   31.955   -2.930   28.708
H   32.529   -1.552   29.825
H   29.729   -0.029   33.872
H   30.665   -3.106   36.021
H   28.961   -3.195   36.576
H   30.218   -2.171   37.424
H   27.642   2.828   39.505
H   28.511   1.217   39.495
H   25.670   1.544   40.582
H   29.001   2.156   43.052
H   29.371   1.414   41.530
H   29.013   0.421   42.881
H   26.872   0.787   44.021
H   25.588   0.503   42.844
H   25.944   3.446   43.511
H   26.221   2.552   44.915
H   23.824   1.561   43.609
H   23.719   3.202   43.606
H   24.461   2.067   46.294
H   22.434   0.969   46.873
H   23.196   0.136   45.491
H   21.788   1.228   45.362
H   21.867   3.357   45.952
H   23.024   4.440   45.502
H   24.088   4.613   47.355
H   23.535   3.134   48.162
H   21.557   4.027   48.727
H   21.364   5.107   47.362
H   23.153   6.607   48.346
H   23.178   4.602   50.415
H   22.580   6.257   51.034
H   24.045   6.076   50.191
H   20.771   6.876   50.097
H   20.432   7.013   48.322
H   22.799   8.558   49.376
H   21.221   9.122   49.873
H   21.217   10.260   48.050
H   20.690   8.803   47.224
H   23.600   9.154   47.414
H   22.567   11.428   46.859
H   22.396   10.670   45.178
H   23.954   10.734   46.047
H   21.762   8.230   45.299
H   23.117   7.263   46.142
H   23.459   8.521   44.940
