140
1
Mg   24.459   -7.804   45.730
C   26.586   -5.045   44.577
C   21.887   -6.074   44.190
C   22.841   -10.552   45.751
C   27.522   -9.370   46.768
N   24.343   -5.766   44.356
C   25.305   -4.830   44.045
C   24.688   -3.749   43.084
C   23.167   -3.943   43.211
C   23.119   -5.331   43.956
C   22.332   -2.873   44.030
C   25.237   -3.822   41.618
C   25.488   -2.499   40.927
C   24.417   -2.034   39.891
O   23.317   -1.624   40.184
O   24.875   -2.272   38.628
N   22.604   -8.235   45.191
C   21.647   -7.401   44.680
C   20.381   -8.155   44.469
C   20.679   -9.472   44.906
C   22.095   -9.470   45.265
C   19.082   -7.630   43.836
C   19.818   -10.733   44.789
O   18.676   -10.595   44.359
C   20.227   -12.028   45.167
N   25.207   -9.776   45.955
C   24.194   -10.690   46.167
C   24.843   -12.020   46.714
C   26.381   -11.701   46.729
C   26.353   -10.162   46.569
C   24.303   -12.520   48.082
C   27.322   -12.424   45.683
C   27.761   -13.868   45.982
N   26.632   -7.372   45.767
C   27.690   -8.054   46.334
C   28.898   -7.265   46.339
C   28.501   -6.051   45.663
C   27.123   -6.133   45.258
C   30.216   -7.747   46.862
C   28.993   -4.841   45.175
O   30.137   -4.417   45.082
C   27.848   -4.189   44.347
C   27.671   -2.819   44.959
O   27.621   -1.780   44.296
O   27.393   -2.803   46.385
C   26.881   -1.511   46.839
C   23.970   -2.108   37.490
C   23.949   -3.434   36.770
C   24.911   -4.045   36.109
C   26.430   -3.609   35.953
C   24.583   -5.311   35.474
C   23.957   -5.257   34.139
C   23.241   -6.580   33.770
C   22.733   -6.697   32.370
C   21.624   -7.747   32.217
C   23.981   -6.913   31.374
C   23.822   -6.118   30.051
C   25.165   -5.529   29.557
C   25.278   -3.933   29.677
C   26.354   -3.494   30.732
C   25.475   -3.367   28.305
C   24.156   -3.583   27.430
C   24.512   -3.892   25.894
C   23.607   -5.058   25.347
C   24.461   -6.168   24.693
C   22.679   -4.490   24.291
H   21.044   -5.517   43.777
H   22.370   -11.509   45.985
H   28.345   -9.943   47.200
H   24.831   -2.766   43.535
H   22.699   -4.122   42.243
H   21.798   -2.303   43.270
H   22.988   -2.174   44.548
H   21.676   -3.277   44.801
H   24.553   -4.272   40.898
H   26.195   -4.342   41.598
H   26.494   -2.546   40.510
H   25.503   -1.726   41.696
H   18.222   -8.027   44.376
H   19.151   -7.952   42.797
H   19.012   -6.547   43.928
H   20.354   -12.038   46.250
H   21.098   -12.408   44.633
H   19.400   -12.623   44.778
H   24.715   -12.875   46.051
H   26.808   -11.853   47.720
H   25.179   -12.580   48.728
H   23.876   -13.512   47.938
H   23.571   -11.760   48.358
H   28.203   -11.782   45.654
H   26.828   -12.521   44.716
H   27.326   -14.008   46.972
H   28.839   -13.929   46.138
H   27.422   -14.643   45.295
H   30.430   -8.657   46.303
H   30.177   -8.080   47.899
H   31.044   -7.089   46.598
H   28.225   -4.065   43.332
H   26.346   -1.907   47.703
H   26.354   -0.976   46.049
H   27.739   -0.964   47.230
H   24.516   -1.365   36.909
H   22.959   -1.710   37.580
H   22.941   -3.849   36.776
H   26.903   -3.981   36.862
H   26.442   -2.523   36.044
H   26.811   -3.930   34.984
H   23.906   -5.930   36.062
H   25.462   -5.942   35.347
H   24.747   -5.140   33.398
H   23.269   -4.411   34.152
H   22.379   -6.564   34.436
H   23.845   -7.452   34.022
H   22.186   -5.795   32.096
H   20.892   -7.350   31.515
H   21.220   -8.011   33.194
H   21.983   -8.658   31.738
H   24.079   -7.985   31.199
H   24.932   -6.648   31.836
H   23.048   -5.360   30.178
H   23.519   -6.885   29.339
H   25.249   -5.845   28.517
H   26.041   -5.962   30.040
H   24.391   -3.509   30.146
H   25.819   -2.872   31.449
H   27.173   -2.890   30.343
H   26.711   -4.311   31.359
H   26.354   -3.809   27.837
H   25.652   -2.296   28.409
H   23.647   -2.623   27.335
H   23.489   -4.347   27.830
H   25.570   -4.092   25.726
H   24.341   -2.974   25.331
H   22.994   -5.483   26.141
H   23.820   -6.919   24.232
H   25.078   -6.549   25.507
H   25.199   -5.761   24.001
H   22.900   -3.450   24.051
H   21.674   -4.418   24.706
H   22.665   -5.104   23.390
