140
21
Mg   47.571   15.372   28.440
C   45.228   15.038   31.223
C   49.370   17.499   30.456
C   49.347   16.181   25.672
C   45.038   13.884   26.495
N   47.154   16.287   30.531
C   46.337   15.868   31.488
C   46.848   16.301   32.815
C   47.851   17.443   32.543
C   48.153   17.064   31.121
C   47.294   18.895   32.409
C   47.501   15.200   33.668
C   47.434   15.361   35.187
C   48.734   15.476   35.963
O   49.740   14.782   35.756
O   48.672   16.382   37.023
N   49.270   16.431   28.199
C   49.867   17.273   29.123
C   51.009   17.884   28.602
C   51.033   17.575   27.248
C   49.840   16.701   26.952
C   51.936   18.879   29.368
C   52.033   18.053   26.179
O   51.923   17.650   25.031
C   53.189   18.986   26.409
N   47.231   15.036   26.383
C   48.202   15.449   25.450
C   47.854   14.820   24.127
C   46.500   14.087   24.405
C   46.255   14.244   25.876
C   47.899   15.829   23.005
C   46.261   12.671   23.856
C   47.146   11.543   24.336
N   45.617   14.573   28.751
C   44.734   13.955   27.864
C   43.544   13.373   28.556
C   43.802   13.707   29.893
C   44.991   14.495   29.964
C   42.465   12.564   27.886
C   43.278   13.510   31.184
O   42.244   12.982   31.537
C   44.262   14.411   32.193
C   43.363   15.389   32.787
O   42.461   15.966   32.205
O   43.652   15.430   34.129
C   42.693   16.241   34.954
C   49.824   16.463   37.916
C   49.981   17.675   38.862
C   51.045   18.254   39.394
C   52.477   17.775   39.257
C   50.872   19.530   40.188
C   51.347   20.735   39.361
C   51.989   21.881   40.150
C   52.790   22.819   39.186
C   53.805   23.581   40.193
C   51.852   23.771   38.440
C   52.486   24.310   37.137
C   51.693   24.130   35.912
C   52.453   23.940   34.558
C   53.608   24.979   34.523
C   51.464   24.254   33.370
C   51.377   22.997   32.357
C   50.574   23.382   31.070
C   51.332   23.363   29.741
C   52.265   24.552   29.669
C   50.351   23.509   28.513
H   49.909   18.040   31.237
H   49.914   16.431   24.773
H   44.316   13.336   25.887
H   46.061   16.765   33.409
H   48.834   17.436   33.015
H   47.483   19.384   31.453
H   47.800   19.462   33.191
H   46.220   18.906   32.592
H   48.550   15.184   33.375
H   47.062   14.218   33.487
H   46.793   14.534   35.494
H   46.912   16.306   35.337
H   51.837   19.864   28.913
H   52.911   18.440   29.158
H   51.737   18.938   30.438
H   53.840   18.958   25.535
H   53.709   18.566   27.271
H   52.866   20.003   26.629
H   48.666   14.108   23.977
H   45.657   14.606   23.948
H   47.009   15.699   22.390
H   48.734   15.608   22.340
H   47.960   16.832   23.427
H   46.501   12.730   22.795
H   45.248   12.300   24.015
H   46.462   10.820   24.780
H   47.877   11.895   25.065
H   47.619   11.080   23.470
H   42.663   12.033   26.955
H   41.694   13.296   27.646
H   42.318   11.839   28.686
H   44.712   13.814   32.987
H   42.207   17.076   34.449
H   43.405   16.613   35.691
H   41.920   15.629   35.418
H   50.752   16.508   37.346
H   49.781   15.565   38.533
H   49.002   18.132   39.009
H   53.106   18.391   38.615
H   52.540   16.755   38.879
H   52.993   17.663   40.210
H   51.557   19.513   41.036
H   49.812   19.721   40.352
H   50.439   21.139   38.913
H   52.050   20.478   38.569
H   52.622   21.466   40.935
H   51.121   22.469   40.449
H   53.398   22.248   38.485
H   53.238   24.215   40.875
H   54.343   24.172   39.452
H   54.399   22.899   40.800
H   51.644   24.689   38.991
H   50.905   23.261   38.265
H   53.375   23.687   37.044
H   52.814   25.315   37.401
H   51.066   25.021   35.930
H   51.001   23.308   36.097
H   52.866   22.935   34.469
H   54.553   24.748   35.014
H   53.446   26.004   34.855
H   53.884   24.953   33.469
H   51.831   25.063   32.739
H   50.539   24.590   33.838
H   50.698   22.331   32.889
H   52.321   22.515   32.101
H   50.167   24.378   31.241
H   49.889   22.553   30.888
H   51.817   22.389   29.681
H   52.903   24.627   28.789
H   52.964   24.563   30.505
H   51.704   25.487   29.675
H   50.518   22.832   27.675
H   50.420   24.476   28.015
H   49.307   23.572   28.821
