140
10
Mg   9.086   46.733   24.819
C   7.081   47.039   27.606
C   11.651   48.173   26.546
C   10.872   46.708   21.889
C   6.132   46.318   22.877
N   9.381   47.335   26.966
C   8.427   47.294   27.952
C   9.008   47.739   29.250
C   10.363   48.422   28.798
C   10.471   47.977   27.315
C   10.371   49.910   28.783
C   9.135   46.605   30.323
C   8.657   46.932   31.725
C   8.309   45.781   32.622
O   7.939   44.680   32.219
O   8.444   46.148   33.952
N   11.017   47.142   24.338
C   11.938   47.682   25.180
C   13.312   47.685   24.580
C   13.157   47.214   23.242
C   11.619   46.969   23.091
C   14.543   48.145   25.354
C   14.228   46.990   22.184
O   13.936   46.492   21.093
C   15.660   47.195   22.558
N   8.532   46.527   22.732
C   9.482   46.553   21.772
C   8.817   46.623   20.362
C   7.424   46.096   20.673
C   7.348   46.365   22.141
C   8.994   48.023   19.730
C   7.285   44.611   20.283
C   6.052   44.204   19.415
N   7.011   46.726   25.142
C   6.025   46.538   24.257
C   4.809   46.675   24.977
C   5.161   46.822   26.318
C   6.549   46.842   26.340
C   3.453   46.734   24.459
C   4.661   46.948   27.690
O   3.544   46.898   28.184
C   5.887   47.085   28.541
C   5.798   45.939   29.510
O   6.214   44.828   29.325
O   5.120   46.463   30.625
C   4.586   45.430   31.565
C   8.267   45.095   34.859
C   8.522   45.524   36.260
C   7.608   45.675   37.224
C   6.174   45.080   37.270
C   8.062   46.441   38.381
C   8.669   45.595   39.402
C   10.168   45.777   39.607
C   10.472   46.277   41.045
C   10.522   47.817   41.035
C   11.837   45.594   41.646
C   11.652   44.403   42.606
C   12.928   43.665   42.817
C   12.995   43.071   44.222
C   13.564   41.662   44.290
C   13.566   44.005   45.288
C   12.450   44.842   46.027
C   12.559   46.370   45.702
C   11.310   47.141   46.220
C   10.803   48.001   45.141
C   11.551   47.889   47.539
H   12.397   48.682   27.160
H   11.550   46.641   21.035
H   5.201   46.244   22.310
H   8.388   48.563   29.604
H   11.162   48.049   29.439
H   11.006   50.325   29.566
H   9.427   50.456   28.788
H   10.866   50.267   27.880
H   10.209   46.466   30.447
H   8.630   45.702   29.979
H   7.839   47.638   31.871
H   9.518   47.322   32.268
H   14.484   48.382   26.416
H   15.087   48.986   24.923
H   15.160   47.247   25.323
H   15.903   46.510   23.371
H   15.784   48.206   22.945
H   16.300   47.186   21.676
H   9.407   46.010   19.681
H   6.707   46.833   20.310
H   9.765   47.924   18.967
H   9.413   48.715   20.460
H   8.113   48.355   19.180
H   7.076   44.013   21.170
H   8.074   44.255   19.621
H   5.472   43.433   19.920
H   6.401   43.855   18.443
H   5.519   45.133   19.213
H   2.814   47.120   25.253
H   3.138   45.850   23.905
H   3.408   47.490   23.674
H   5.754   48.001   29.116
H   5.234   45.278   32.428
H   4.575   44.466   31.057
H   3.518   45.584   31.719
H   9.041   44.367   34.618
H   7.271   44.683   34.696
H   9.528   45.869   36.500
H   6.080   44.467   38.166
H   5.853   44.542   36.378
H   5.460   45.898   37.373
H   7.285   47.045   38.850
H   8.725   47.228   38.021
H   8.482   44.563   39.107
H   8.101   45.665   40.329
H   10.576   46.377   38.794
H   10.781   44.880   39.520
H   9.627   45.995   41.674
H   9.665   48.229   41.567
H   10.628   48.264   40.046
H   11.359   48.221   41.605
H   12.447   46.329   42.171
H   12.401   45.324   40.754
H   10.923   43.741   42.140
H   11.253   44.781   43.548
H   13.833   44.240   42.619
H   12.842   42.810   42.147
H   11.952   42.851   44.445
H   13.913   41.259   43.340
H   12.832   40.990   44.739
H   14.498   41.585   44.847
H   14.320   44.691   44.899
H   13.951   43.308   46.032
H   12.614   44.597   47.076
H   11.407   44.632   45.788
H   12.771   46.420   44.635
H   13.381   46.760   46.303
H   10.528   46.389   46.328
H   10.579   47.308   44.330
H   11.519   48.758   44.823
H   9.886   48.509   45.439
H   10.914   47.435   48.298
H   11.075   48.869   47.574
H   12.546   48.123   47.917
