140
13
Mg   15.880   52.077   25.375
C   17.904   51.162   28.183
C   13.238   52.470   27.491
C   14.337   53.117   22.724
C   18.553   50.934   23.345
N   15.658   51.934   27.519
C   16.574   51.674   28.539
C   16.100   52.096   29.929
C   14.537   52.114   29.649
C   14.446   52.102   28.127
C   13.824   50.778   30.239
C   16.716   53.427   30.220
C   16.715   53.830   31.720
C   15.792   53.020   32.709
O   16.114   51.947   33.215
O   14.717   53.800   33.038
N   13.930   52.757   25.150
C   12.973   52.786   26.112
C   11.771   53.329   25.458
C   12.052   53.551   24.081
C   13.443   53.176   23.922
C   10.396   53.383   26.200
C   11.142   54.061   22.970
O   11.491   54.235   21.820
C   9.675   54.338   23.239
N   16.460   52.195   23.349
C   15.651   52.671   22.442
C   16.209   52.627   21.008
C   17.675   52.166   21.293
C   17.591   51.781   22.741
C   15.405   51.572   20.106
C   18.761   53.237   21.120
C   20.114   52.774   20.336
N   17.750   50.963   25.578
C   18.687   50.529   24.738
C   19.788   49.903   25.400
C   19.518   50.209   26.740
C   18.333   50.855   26.826
C   20.919   49.187   24.734
C   20.136   50.166   28.025
O   21.198   49.726   28.409
C   19.029   50.651   29.103
C   18.562   49.412   29.890
O   18.018   48.354   29.488
O   18.680   49.704   31.231
C   18.069   48.767   32.156
C   13.918   53.095   34.100
C   12.537   53.806   34.253
C   11.789   54.123   35.370
C   12.337   53.632   36.624
C   10.390   54.641   35.227
C   10.295   56.132   34.941
C   10.118   57.075   36.049
C   8.708   57.652   36.306
C   8.879   59.080   36.904
C   7.828   56.723   37.175
C   6.358   56.944   37.031
C   5.696   57.502   38.382
C   4.567   58.394   38.054
C   5.069   59.825   37.928
C   3.450   58.344   39.152
C   2.091   58.264   38.437
C   1.413   56.910   38.451
C   -0.065   57.077   38.187
C   -0.878   57.590   39.436
C   -0.782   55.838   37.609
H   12.377   52.731   28.110
H   13.794   53.343   21.804
H   19.396   50.739   22.679
H   16.578   51.423   30.641
H   14.206   53.039   30.122
H   13.277   50.203   29.492
H   13.120   51.096   31.008
H   14.533   50.176   30.807
H   16.112   54.248   29.832
H   17.735   53.467   29.837
H   16.739   54.919   31.760
H   17.719   53.555   32.044
H   9.714   52.627   25.809
H   9.855   54.323   26.092
H   10.545   53.203   27.264
H   9.290   53.536   23.870
H   9.124   54.325   22.299
H   9.451   55.294   23.712
H   16.311   53.517   20.387
H   17.912   51.261   20.733
H   14.658   52.180   19.597
H   14.909   50.783   20.672
H   15.971   51.094   19.306
H   19.061   53.568   22.115
H   18.445   54.168   20.649
H   20.016   51.707   20.135
H   21.049   52.962   20.863
H   20.239   53.296   19.388
H   20.649   49.122   23.680
H   21.001   48.161   25.093
H   21.916   49.619   24.817
H   19.308   51.438   29.804
H   18.933   48.218   32.530
H   17.291   48.161   31.692
H   17.704   49.258   33.058
H   14.448   53.279   35.034
H   13.732   52.040   33.898
H   12.099   54.240   33.354
H   12.752   52.629   36.533
H   11.497   53.400   37.278
H   13.062   54.358   36.991
H   9.959   54.263   36.154
H   10.145   54.022   34.364
H   9.637   56.270   34.084
H   11.245   56.445   34.508
H   10.806   57.867   35.754
H   10.539   56.524   36.890
H   8.193   57.751   35.351
H   8.072   59.724   36.554
H   9.845   59.522   36.661
H   8.717   58.961   37.976
H   8.205   56.586   38.189
H   8.025   55.756   36.713
H   5.872   56.089   36.561
H   6.268   57.725   36.276
H   6.557   58.096   38.690
H   5.447   56.702   39.079
H   4.134   58.113   37.094
H   5.484   60.182   38.871
H   4.275   60.545   37.736
H   5.806   59.929   37.132
H   3.429   59.210   39.814
H   3.582   57.487   39.812
H   2.161   58.538   37.384
H   1.483   59.041   38.901
H   1.466   56.517   39.466
H   1.856   56.213   37.740
H   -0.046   57.836   37.405
H   -0.214   57.762   40.284
H   -1.704   56.989   39.817
H   -1.219   58.573   39.113
H   -0.132   54.971   37.730
H   -0.975   55.942   36.541
H   -1.679   55.726   38.218
