140
8
Mg   45.939   44.772   43.358
C   42.529   43.780   43.228
C   46.711   41.438   42.649
C   49.072   45.784   42.940
C   44.904   48.034   43.659
N   44.697   42.881   42.770
C   43.362   42.712   42.906
C   42.992   41.259   42.766
C   44.312   40.480   43.038
C   45.362   41.630   42.858
C   44.493   39.861   44.460
C   42.172   40.839   41.491
C   42.170   41.689   40.250
C   41.889   41.060   38.859
O   41.313   40.019   38.590
O   42.470   41.887   37.873
N   47.701   43.736   42.897
C   47.800   42.404   42.578
C   49.168   42.131   42.119
C   49.853   43.337   42.199
C   48.883   44.354   42.747
C   49.769   40.743   41.815
C   51.279   43.621   41.782
O   51.844   42.668   41.362
C   52.005   44.992   41.787
N   46.878   46.662   43.267
C   48.164   46.836   43.165
C   48.608   48.303   43.114
C   47.290   48.958   43.332
C   46.271   47.850   43.429
C   49.771   48.791   44.044
C   46.989   50.150   42.340
C   46.531   51.489   42.996
N   44.069   45.765   43.585
C   43.830   47.106   43.740
C   42.388   47.328   43.803
C   41.846   46.059   43.593
C   42.933   45.149   43.441
C   41.724   48.631   44.051
C   40.664   45.278   43.525
O   39.517   45.659   43.462
C   41.063   43.785   43.319
C   40.562   42.993   44.522
O   39.680   42.175   44.366
O   41.073   43.409   45.701
C   40.259   43.211   46.935
C   42.480   41.247   36.539
C   43.665   41.814   35.869
C   44.723   41.256   35.212
C   44.986   39.841   34.726
C   45.716   42.223   34.544
C   45.527   42.479   33.099
C   45.344   43.929   32.631
C   45.264   43.882   31.108
C   45.269   45.358   30.626
C   44.184   43.040   30.419
C   44.683   41.834   29.558
C   43.767   41.567   28.329
C   44.220   42.451   27.088
C   43.233   43.527   26.735
C   44.564   41.622   25.793
C   45.084   42.559   24.711
C   45.802   41.801   23.553
C   46.524   42.767   22.572
C   46.158   42.418   21.101
C   48.051   42.727   22.634
H   46.925   40.374   42.527
H   50.096   46.147   42.835
H   44.521   49.053   43.746
H   42.272   41.127   43.574
H   44.461   39.809   42.192
H   44.633   38.790   44.313
H   43.679   40.051   45.159
H   45.425   40.195   44.915
H   41.168   40.624   41.859
H   42.572   39.870   41.192
H   43.201   42.040   40.294
H   41.432   42.484   40.354
H   49.028   39.990   42.084
H   50.705   40.626   42.361
H   49.943   40.629   40.745
H   52.101   45.325   42.820
H   51.446   45.759   41.251
H   52.978   44.911   41.302
H   48.909   48.487   42.082
H   47.296   49.283   44.372
H   50.324   49.470   43.394
H   50.348   47.894   44.269
H   49.366   49.224   44.958
H   46.218   49.659   41.746
H   47.835   50.348   41.683
H   45.663   51.949   42.524
H   47.413   52.115   42.864
H   46.296   51.299   44.044
H   42.417   49.218   44.655
H   40.821   48.463   44.638
H   41.530   49.294   43.208
H   40.641   43.475   42.363
H   40.890   42.624   47.602
H   39.253   42.921   46.630
H   40.069   44.191   47.373
H   41.633   41.607   35.955
H   42.499   40.167   36.395
H   43.807   42.835   36.224
H   44.236   39.144   35.102
H   45.953   39.412   34.989
H   44.786   39.713   33.662
H   46.765   41.928   34.562
H   45.720   43.168   35.087
H   44.648   41.883   32.854
H   46.433   42.040   32.683
H   46.280   44.439   32.854
H   44.535   44.532   33.044
H   46.255   43.570   30.779
H   44.434   45.956   30.992
H   45.315   45.327   29.537
H   46.206   45.787   30.981
H   43.650   43.718   29.753
H   43.498   42.622   31.155
H   44.798   40.884   30.080
H   45.679   42.053   29.173
H   42.768   41.862   28.649
H   43.837   40.506   28.088
H   45.090   43.008   27.437
H   42.421   43.603   27.458
H   42.672   43.255   25.841
H   43.691   44.507   26.598
H   43.707   41.037   25.459
H   45.339   40.925   26.109
H   45.886   43.056   25.256
H   44.387   43.314   24.349
H   45.203   41.024   23.078
H   46.533   41.157   24.040
H   46.110   43.733   22.860
H   46.122   43.412   20.655
H   45.209   41.881   21.073
H   46.886   41.845   20.528
H   48.358   41.687   22.520
H   48.236   43.104   23.639
H   48.613   43.296   21.893
