140
33
Mg   53.664   23.834   44.419
C   50.876   25.860   43.864
C   51.540   21.113   44.522
C   56.285   21.783   44.004
C   55.720   26.590   43.716
N   51.521   23.559   44.079
C   50.538   24.459   43.944
C   49.165   23.856   43.922
C   49.369   22.436   44.299
C   50.906   22.371   44.352
C   48.710   22.014   45.687
C   48.478   23.985   42.575
C   49.322   23.712   41.351
C   49.134   24.612   40.129
O   48.438   25.566   39.995
O   49.835   24.147   39.061
N   53.850   21.715   44.248
C   52.878   20.801   44.431
C   53.434   19.464   44.446
C   54.814   19.679   44.358
C   55.047   21.125   44.188
C   52.713   18.190   44.817
C   55.860   18.524   44.547
O   55.448   17.371   44.651
C   57.343   18.779   44.591
N   55.711   24.229   43.721
C   56.612   23.171   43.826
C   57.989   23.714   43.554
C   57.838   25.253   43.437
C   56.328   25.355   43.588
C   59.125   23.292   44.558
C   58.455   25.961   42.141
C   59.407   27.186   42.240
N   53.409   25.884   44.052
C   54.319   26.858   43.793
C   53.627   28.155   43.891
C   52.301   27.790   43.957
C   52.205   26.390   43.950
C   54.287   29.541   43.848
C   50.987   28.311   43.929
O   50.572   29.495   44.006
C   49.995   27.136   43.871
C   49.250   27.418   42.674
O   49.795   27.519   41.586
O   47.905   27.645   42.919
C   47.132   28.247   41.834
C   49.255   24.262   37.752
C   50.026   23.179   37.019
C   49.703   21.855   36.938
C   48.657   21.181   37.771
C   50.392   20.967   35.842
C   51.412   19.960   36.409
C   51.693   18.704   35.486
C   53.147   18.742   35.052
C   53.190   19.490   33.741
C   53.733   17.263   34.965
C   52.770   16.319   34.201
C   53.545   15.200   33.430
C   52.622   14.347   32.497
C   51.994   13.212   33.375
C   53.292   13.626   31.341
C   53.199   14.482   30.115
C   54.602   14.434   29.434
C   54.617   13.501   28.174
C   55.825   12.562   28.290
C   54.631   14.402   26.890
H   50.852   20.302   44.770
H   57.240   21.268   43.873
H   56.370   27.447   43.525
H   48.532   24.390   44.630
H   49.028   21.727   43.544
H   48.527   22.883   46.318
H   49.396   21.435   46.305
H   47.707   21.615   45.538
H   48.141   25.021   42.535
H   47.579   23.369   42.546
H   49.078   22.691   41.060
H   50.387   23.657   41.576
H   53.054   17.511   44.036
H   51.652   18.422   44.732
H   52.952   17.831   45.818
H   57.786   17.913   45.082
H   57.567   19.667   45.183
H   57.767   18.815   43.587
H   58.152   23.266   42.574
H   58.384   25.635   44.300
H   59.429   24.043   45.287
H   60.036   22.892   44.112
H   58.678   22.458   45.098
H   57.655   26.399   41.545
H   58.964   25.371   41.378
H   60.386   26.826   41.924
H   59.595   27.441   43.283
H   59.094   28.050   41.653
H   53.942   30.128   42.997
H   55.372   29.574   43.743
H   53.963   30.010   44.777
H   49.317   27.103   44.724
H   46.988   27.498   41.056
H   47.766   28.977   41.330
H   46.151   28.639   42.100
H   49.359   25.197   37.201
H   48.203   23.986   37.815
H   50.698   23.524   36.233
H   47.986   20.686   37.070
H   48.002   21.919   38.235
H   49.124   20.404   38.376
H   50.921   21.550   35.088
H   49.524   20.512   35.364
H   51.027   19.640   37.377
H   52.375   20.411   36.647
H   50.942   18.636   34.700
H   51.530   17.843   36.134
H   53.875   19.280   35.660
H   52.221   19.743   33.311
H   53.705   18.917   32.969
H   53.859   20.342   33.867
H   53.929   16.985   36.001
H   54.605   17.393   34.324
H   52.242   16.934   33.473
H   52.015   15.973   34.906
H   53.990   14.618   34.238
H   54.375   15.579   32.834
H   51.742   14.921   32.208
H   52.477   12.238   33.299
H   51.012   13.047   32.933
H   51.895   13.427   34.439
H   52.839   12.651   31.161
H   54.276   13.269   31.643
H   52.921   15.495   30.405
H   52.425   14.084   29.459
H   55.498   14.311   30.043
H   54.723   15.434   29.019
H   53.737   12.865   28.079
H   55.484   11.662   27.778
H   56.092   12.237   29.295
H   56.696   12.893   27.724
H   53.571   14.558   26.693
H   54.821   13.943   25.920
H   55.155   15.358   26.910
