140
1
Mg   29.464   59.145   41.038
C   26.578   57.389   40.289
C   31.349   56.531   39.782
C   32.150   61.189   41.086
C   27.354   61.820   41.949
N   28.992   57.292   39.871
C   27.772   56.748   39.893
C   27.779   55.389   39.127
C   29.329   54.997   39.218
C   29.967   56.344   39.732
C   29.581   53.727   40.066
C   27.374   55.594   37.685
C   26.460   54.527   37.103
C   26.578   54.021   35.616
O   26.517   52.865   35.253
O   26.748   55.106   34.848
N   31.533   58.788   40.650
C   32.110   57.714   40.084
C   33.515   57.958   40.033
C   33.806   59.247   40.574
C   32.479   59.816   40.840
C   34.477   56.891   39.661
C   35.162   59.858   40.593
O   36.130   59.214   40.224
C   35.397   61.264   41.132
N   29.713   61.282   41.565
C   30.944   61.846   41.414
C   30.859   63.334   41.520
C   29.292   63.522   41.793
C   28.699   62.136   41.849
C   31.799   63.962   42.566
C   28.518   64.480   40.783
C   27.642   65.639   41.314
N   27.437   59.547   41.140
C   26.744   60.627   41.589
C   25.412   60.280   41.819
C   25.254   58.984   41.348
C   26.489   58.611   40.880
C   24.327   61.255   42.363
C   24.372   57.928   41.168
O   23.159   57.918   41.346
C   25.149   56.755   40.397
C   25.258   55.582   41.187
O   25.993   55.316   42.141
O   24.334   54.682   40.665
C   24.175   53.359   41.244
C   27.286   54.743   33.541
C   27.201   55.980   32.679
C   27.487   56.091   31.367
C   27.642   54.997   30.343
C   27.831   57.414   30.802
C   29.234   57.897   31.172
C   29.900   58.630   29.951
C   31.150   57.875   29.420
C   30.909   57.732   27.875
C   32.502   58.702   29.749
C   33.738   57.796   29.593
C   34.432   57.440   30.908
C   34.689   55.910   31.158
C   33.435   55.077   31.692
C   35.909   55.834   32.119
C   36.959   54.842   31.612
C   37.604   55.366   30.299
C   37.293   54.338   29.090
C   38.425   53.265   28.914
C   37.182   55.138   27.798
H   31.952   55.655   39.535
H   32.919   61.962   41.153
H   26.805   62.682   42.334
H   27.083   54.719   39.631
H   29.817   54.888   38.250
H   28.669   53.374   40.547
H   30.340   53.938   40.820
H   30.006   52.972   39.405
H   28.168   55.748   36.954
H   26.927   56.588   37.670
H   25.440   54.851   37.309
H   26.664   53.691   37.772
H   34.813   56.525   40.631
H   35.297   57.283   39.059
H   34.022   56.083   39.088
H   35.106   61.939   40.327
H   36.479   61.373   41.202
H   34.844   61.421   42.058
H   31.143   63.610   40.505
H   29.109   64.048   42.730
H   32.596   64.443   41.998
H   32.191   63.234   43.277
H   31.269   64.751   43.099
H   27.851   63.867   40.177
H   29.188   65.018   40.112
H   26.690   65.116   41.404
H   27.544   66.417   40.558
H   27.779   66.009   42.330
H   24.062   61.952   41.569
H   24.634   61.907   43.181
H   23.429   60.712   42.659
H   24.616   56.618   39.456
H   23.133   53.074   41.102
H   24.529   53.255   42.270
H   24.724   52.659   40.614
H   26.795   53.956   32.968
H   28.339   54.461   33.557
H   27.135   56.889   33.277
H   26.695   54.931   29.806
H   27.834   54.051   30.849
H   28.427   55.144   29.601
H   27.097   58.161   31.103
H   27.693   57.369   29.722
H   29.805   57.063   31.582
H   29.259   58.573   32.027
H   30.190   59.606   30.340
H   29.212   58.907   29.152
H   31.139   56.854   29.800
H   29.965   57.196   27.771
H   31.776   57.213   27.468
H   30.822   58.727   27.439
H   32.362   59.035   30.777
H   32.544   59.535   29.047
H   34.437   58.430   29.049
H   33.496   56.867   29.077
H   33.738   57.685   31.712
H   35.243   58.152   31.060
H   34.932   55.436   30.208
H   33.758   54.374   32.460
H   32.928   54.621   30.842
H   32.758   55.736   32.235
H   35.486   55.470   33.056
H   36.541   56.702   32.306
H   36.673   53.790   31.572
H   37.827   54.905   32.268
H   38.688   55.432   30.396
H   37.330   56.375   29.993
H   36.322   53.851   29.182
H   39.065   53.293   29.796
H   39.059   53.357   28.033
H   37.980   52.280   28.779
H   36.111   55.296   27.675
H   37.555   54.538   26.968
H   37.607   56.133   27.929
