140
22
Mg   -3.726   34.934   26.477
C   -4.713   33.152   29.390
C   -2.023   37.099   28.445
C   -3.222   36.754   23.759
C   -5.561   32.468   24.549
N   -3.408   34.983   28.659
C   -3.830   34.183   29.636
C   -3.286   34.631   31.061
C   -2.458   35.959   30.758
C   -2.584   36.003   29.159
C   -2.867   37.272   31.490
C   -2.505   33.504   31.929
C   -3.209   33.074   33.275
C   -2.198   33.027   34.451
O   -1.137   32.426   34.511
O   -2.761   33.741   35.550
N   -2.591   36.636   26.185
C   -2.009   37.380   27.076
C   -1.341   38.467   26.444
C   -1.819   38.415   25.079
C   -2.653   37.240   24.999
C   -0.291   39.373   27.076
C   -1.449   39.364   23.865
O   -1.871   39.220   22.717
C   -0.493   40.453   24.059
N   -4.475   34.757   24.502
C   -4.003   35.631   23.538
C   -4.285   35.065   22.132
C   -4.807   33.615   22.404
C   -4.989   33.622   23.893
C   -5.303   36.031   21.451
C   -3.772   32.520   21.977
C   -2.323   32.505   22.613
N   -4.895   33.160   26.805
C   -5.574   32.337   25.915
C   -6.166   31.227   26.654
C   -5.880   31.480   27.963
C   -5.125   32.679   28.070
C   -6.761   29.983   26.088
C   -6.037   31.042   29.356
O   -6.567   30.049   29.855
C   -5.263   32.107   30.315
C   -6.314   32.502   31.306
O   -7.200   33.316   31.139
O   -6.170   31.744   32.414
C   -7.015   32.075   33.468
C   -2.105   33.601   36.816
C   -2.718   34.744   37.656
C   -2.266   36.036   37.685
C   -1.007   36.582   37.023
C   -2.863   37.020   38.712
C   -2.403   36.930   40.237
C   -2.039   38.370   40.780
C   -2.510   38.680   42.252
C   -2.724   40.136   42.628
C   -1.628   37.899   43.343
C   -2.319   37.647   44.687
C   -1.344   37.956   45.872
C   -0.393   36.766   46.153
C   -0.091   36.588   47.692
C   0.883   37.052   45.356
C   1.463   35.651   44.906
C   2.931   35.687   44.272
C   3.159   34.821   43.021
C   4.617   34.630   42.699
C   2.395   35.528   41.857
H   -1.373   37.700   29.084
H   -3.026   37.229   22.796
H   -5.727   31.588   23.923
H   -4.173   34.983   31.588
H   -1.394   35.831   30.958
H   -3.611   37.642   30.784
H   -1.992   37.918   31.560
H   -3.388   37.042   32.419
H   -1.471   33.811   32.084
H   -2.396   32.688   31.215
H   -3.638   32.083   33.128
H   -4.026   33.703   33.630
H   -0.604   40.417   27.093
H   0.664   39.487   26.564
H   -0.053   39.054   28.090
H   -0.830   41.213   24.765
H   -0.207   41.022   23.174
H   0.400   39.979   24.467
H   -3.315   35.108   21.637
H   -5.687   33.381   21.805
H   -6.205   35.442   21.286
H   -4.971   36.385   20.475
H   -5.502   36.873   22.113
H   -3.679   32.457   20.893
H   -4.221   31.565   22.250
H   -1.648   32.891   21.850
H   -1.894   31.510   22.733
H   -2.251   33.190   23.459
H   -6.466   29.582   25.119
H   -7.840   30.073   26.211
H   -6.433   29.190   26.761
H   -4.555   31.356   30.662
H   -7.977   32.536   33.245
H   -6.452   32.657   34.199
H   -7.206   31.192   34.078
H   -1.045   33.792   36.648
H   -2.446   32.646   37.215
H   -3.663   34.502   38.144
H   -0.582   35.898   36.288
H   -0.257   36.798   37.783
H   -1.150   37.520   36.486
H   -3.939   36.850   38.766
H   -2.814   38.067   38.413
H   -1.435   36.436   40.326
H   -3.203   36.485   40.828
H   -2.329   39.177   40.107
H   -0.962   38.525   40.850
H   -3.492   38.246   42.437
H   -3.721   40.344   43.015
H   -2.529   40.787   41.775
H   -2.071   40.371   43.469
H   -0.759   38.556   43.385
H   -1.454   36.953   42.830
H   -2.619   36.600   44.743
H   -3.211   38.271   44.733
H   -1.907   38.301   46.739
H   -0.759   38.852   45.660
H   -0.753   35.784   45.845
H   -0.485   35.634   48.042
H   -0.574   37.348   48.305
H   0.974   36.614   47.923
H   1.542   37.597   46.032
H   0.840   37.684   44.470
H   0.844   35.114   44.186
H   1.500   35.027   45.800
H   3.690   35.380   44.993
H   3.058   36.722   43.956
H   2.770   33.806   43.107
H   4.732   34.043   41.788
H   5.208   34.165   43.488
H   4.962   35.618   42.396
H   1.508   36.001   42.278
H   2.151   34.800   41.084
H   3.093   36.240   41.414
