140
14
Mg   3.465   -0.082   44.426
C   6.228   1.857   43.958
C   1.587   2.414   42.783
C   0.808   -2.125   44.482
C   5.494   -2.751   45.555
N   3.872   1.903   43.386
C   5.152   2.381   43.197
C   5.192   3.547   42.157
C   3.650   3.872   42.119
C   2.977   2.625   42.672
C   3.258   5.241   42.812
C   5.778   2.928   40.845
C   6.943   3.733   40.186
C   6.736   4.340   38.851
O   6.464   5.501   38.629
O   6.876   3.360   37.947
N   1.382   0.173   43.833
C   0.797   1.309   43.251
C   -0.608   1.197   43.312
C   -0.816   -0.249   43.610
C   0.477   -0.842   43.915
C   -1.589   2.283   42.900
C   -2.147   -0.873   43.547
O   -3.123   -0.232   43.345
C   -2.352   -2.366   43.807
N   3.264   -2.203   44.605
C   2.039   -2.762   44.754
C   2.016   -4.186   45.284
C   3.540   -4.458   45.479
C   4.193   -3.084   45.172
C   1.152   -4.401   46.609
C   4.123   -5.706   44.804
C   4.934   -6.651   45.738
N   5.491   -0.371   44.817
C   6.155   -1.416   45.409
C   7.528   -1.076   45.734
C   7.633   0.278   45.229
C   6.351   0.574   44.629
C   8.353   -2.040   46.511
C   8.452   1.379   44.953
O   9.680   1.614   45.063
C   7.539   2.428   44.137
C   7.529   3.784   44.786
O   8.580   4.416   45.017
O   6.285   4.150   45.193
C   6.200   5.388   45.838
C   6.549   3.707   36.617
C   5.410   2.836   36.068
C   5.483   1.891   35.132
C   6.768   1.288   34.561
C   4.183   1.350   34.471
C   3.625   2.326   33.418
C   2.425   1.766   32.614
C   1.040   2.439   32.955
C   0.367   1.820   34.206
C   0.019   2.217   31.747
C   -0.165   3.435   30.728
C   -1.497   3.375   30.004
C   -1.507   4.235   28.730
C   -2.476   5.497   28.893
C   -1.924   3.488   27.490
C   -1.368   4.045   26.151
C   -2.559   4.236   25.225
C   -2.211   4.403   23.737
C   -3.477   4.887   22.970
C   -1.415   3.302   23.014
H   0.957   3.215   42.388
H   -0.020   -2.788   44.741
H   5.941   -3.570   46.122
H   5.649   4.442   42.579
H   3.327   3.915   41.079
H   2.652   5.764   42.072
H   4.175   5.815   42.941
H   2.843   4.909   43.764
H   5.077   3.004   40.014
H   5.969   1.872   41.035
H   7.891   3.196   40.208
H   7.036   4.628   40.802
H   -2.626   2.118   43.193
H   -1.501   2.246   41.815
H   -1.215   3.270   43.173
H   -2.462   -2.537   44.877
H   -1.686   -3.114   43.376
H   -3.301   -2.696   43.384
H   1.619   -4.820   44.491
H   3.658   -4.623   46.550
H   1.754   -4.814   47.418
H   0.529   -5.267   46.383
H   0.692   -3.476   46.957
H   4.881   -5.356   44.103
H   3.388   -6.317   44.280
H   5.069   -6.086   46.660
H   5.878   -6.731   45.199
H   4.377   -7.569   45.930
H   7.825   -2.511   47.340
H   9.177   -1.477   46.950
H   8.627   -2.804   45.784
H   7.884   2.653   43.128
H   5.635   6.102   45.238
H   7.102   5.893   46.183
H   5.566   5.221   46.709
H   7.469   3.550   36.052
H   6.138   4.714   36.556
H   4.434   3.177   36.413
H   7.686   1.527   35.098
H   6.836   1.693   33.551
H   6.660   0.210   34.434
H   3.403   1.189   35.215
H   4.294   0.388   33.971
H   4.588   2.448   32.924
H   3.365   3.234   33.963
H   2.353   0.697   32.811
H   2.640   1.967   31.565
H   1.193   3.517   32.905
H   1.103   1.449   34.920
H   -0.261   1.005   33.850
H   -0.254   2.562   34.708
H   -1.009   2.023   32.051
H   0.411   1.392   31.151
H   0.641   3.374   29.997
H   -0.040   4.392   31.233
H   -2.317   3.664   30.661
H   -1.709   2.363   29.658
H   -0.504   4.616   28.539
H   -3.303   5.201   29.538
H   -2.977   5.740   27.957
H   -2.030   6.323   29.447
H   -3.004   3.355   27.425
H   -1.585   2.464   27.648
H   -0.685   3.313   25.720
H   -1.162   5.090   26.383
H   -3.137   5.097   25.560
H   -3.211   3.368   25.323
H   -1.511   5.238   23.747
H   -3.389   4.556   21.935
H   -3.639   5.964   23.008
H   -4.376   4.418   23.368
H   -0.373   3.618   22.960
H   -1.693   3.221   21.964
H   -1.443   2.310   23.465
