140
8
Mg   6.730   56.882   41.733
C   5.547   53.579   41.140
C   9.715   55.983   40.459
C   7.357   60.013   41.465
C   3.328   57.641   42.664
N   7.411   55.053   40.610
C   6.894   53.847   40.674
C   7.809   52.788   40.066
C   9.162   53.490   40.008
C   8.767   54.951   40.428
C   10.137   52.702   40.928
C   7.238   52.595   38.613
C   7.076   51.145   38.287
C   7.919   50.689   37.078
O   9.097   50.274   37.102
O   7.126   50.753   35.970
N   8.340   57.833   41.022
C   9.544   57.353   40.654
C   10.526   58.374   40.582
C   9.816   59.591   40.734
C   8.462   59.184   41.140
C   11.992   58.221   40.178
C   10.437   60.996   40.630
O   11.555   61.160   40.248
C   9.744   62.272   40.989
N   5.478   58.588   41.846
C   6.071   59.738   41.919
C   5.072   60.887   42.263
C   3.740   60.109   42.541
C   4.215   58.690   42.417
C   5.528   61.928   43.330
C   2.525   60.432   41.611
C   1.236   60.854   42.327
N   4.966   55.821   42.022
C   3.687   56.274   42.424
C   2.749   55.150   42.579
C   3.511   54.108   42.099
C   4.813   54.533   41.769
C   1.327   55.111   43.060
C   3.350   52.708   41.847
O   2.427   51.972   42.061
C   4.689   52.228   41.266
C   4.446   51.500   40.047
O   4.018   52.042   39.043
O   4.567   50.129   40.178
C   3.915   49.331   39.164
C   7.699   50.380   34.706
C   6.969   51.096   33.548
C   5.703   50.964   33.067
C   4.704   50.037   33.611
C   5.354   51.764   31.807
C   5.882   53.207   31.709
C   5.869   53.630   30.246
C   5.503   55.090   30.021
C   3.973   55.330   29.537
C   6.526   55.864   29.007
C   7.813   56.328   29.709
C   8.120   57.808   29.519
C   9.125   58.332   30.622
C   8.416   59.062   31.715
C   10.385   58.961   29.966
C   11.598   58.055   30.143
C   12.104   57.172   28.947
C   13.352   57.576   28.145
C   13.273   57.422   26.603
C   14.590   56.871   28.677
H   10.694   55.654   40.105
H   7.566   61.085   41.475
H   2.325   57.898   43.011
H   7.815   51.820   40.566
H   9.507   53.550   38.975
H   9.708   51.804   41.373
H   10.683   53.356   41.608
H   10.913   52.429   40.213
H   7.955   52.972   37.883
H   6.320   53.177   38.530
H   6.031   51.008   38.008
H   7.230   50.491   39.146
H   12.101   58.593   39.160
H   12.313   57.196   39.997
H   12.702   58.744   40.819
H   9.606   62.226   42.069
H   8.792   62.368   40.467
H   10.317   63.159   40.721
H   4.963   61.397   41.306
H   3.377   60.337   43.543
H   5.449   62.884   42.813
H   6.495   61.669   43.762
H   4.838   62.032   44.167
H   2.462   59.631   40.874
H   2.719   61.333   41.029
H   0.324   60.436   41.902
H   1.199   61.940   42.417
H   1.190   60.491   43.354
H   1.009   56.087   43.426
H   1.359   54.314   43.802
H   0.707   54.934   42.181
H   5.135   51.538   41.983
H   4.543   48.456   39.000
H   3.836   49.815   38.190
H   2.974   48.953   39.564
H   7.452   49.353   34.436
H   8.776   50.533   34.636
H   7.753   51.674   33.059
H   4.020   49.923   32.770
H   4.222   50.413   34.513
H   5.198   49.079   33.768
H   4.272   51.851   31.714
H   5.704   51.184   30.953
H   6.894   53.336   32.093
H   5.306   53.878   32.347
H   5.067   53.045   29.797
H   6.880   53.447   29.882
H   5.531   55.637   30.963
H   3.311   55.731   30.305
H   3.481   54.372   29.362
H   3.960   55.953   28.643
H   5.956   56.675   28.554
H   6.821   55.258   28.150
H   8.734   55.780   29.509
H   7.551   56.244   30.764
H   7.240   58.428   29.690
H   8.479   57.939   28.498
H   9.467   57.441   31.149
H   7.516   58.535   32.032
H   8.272   60.107   31.439
H   9.136   58.976   32.529
H   10.588   59.928   30.426
H   10.133   59.106   28.915
H   11.489   57.505   31.078
H   12.398   58.779   30.296
H   11.213   57.150   28.319
H   12.193   56.173   29.373
H   13.440   58.646   28.338
H   13.128   58.377   26.097
H   12.457   56.706   26.510
H   14.117   56.966   26.086
H   14.833   55.988   28.086
H   14.419   56.629   29.726
H   15.447   57.519   28.492
