140
7
Mg   35.488   1.456   29.409
C   33.466   2.462   32.057
C   38.195   1.407   31.520
C   37.677   0.933   26.775
C   32.824   1.905   27.198
N   35.782   1.934   31.599
C   34.820   2.212   32.501
C   35.413   2.165   33.903
C   36.980   2.240   33.626
C   37.017   1.808   32.151
C   37.627   3.673   33.827
C   34.909   0.913   34.707
C   34.641   1.099   36.171
C   35.063   2.341   36.875
O   34.500   3.418   36.863
O   36.260   2.039   37.541
N   37.639   1.047   29.204
C   38.519   1.079   30.252
C   39.812   0.690   29.673
C   39.732   0.556   28.281
C   38.310   0.899   28.015
C   41.033   0.546   30.725
C   40.844   0.267   27.208
O   40.777   0.160   25.948
C   42.278   -0.131   27.791
N   35.324   1.321   27.412
C   36.332   1.115   26.470
C   35.858   1.052   25.019
C   34.312   1.035   25.245
C   34.107   1.426   26.700
C   36.485   2.179   24.163
C   33.664   -0.202   24.788
C   33.194   -1.261   25.875
N   33.546   2.125   29.499
C   32.547   2.267   28.542
C   31.330   2.782   29.159
C   31.631   2.757   30.534
C   33.033   2.507   30.679
C   30.035   3.144   28.439
C   31.044   2.879   31.863
O   29.877   3.002   32.217
C   32.272   2.787   32.907
C   32.366   3.957   33.627
O   32.619   5.080   33.150
O   31.895   3.795   34.921
C   31.560   5.006   35.628
C   37.009   3.197   38.032
C   38.164   2.774   38.925
C   38.102   2.204   40.182
C   36.856   1.697   40.805
C   39.440   2.081   40.978
C   39.899   0.631   41.338
C   40.919   0.544   42.497
C   42.438   0.564   42.062
C   42.959   -0.842   41.891
C   43.356   1.473   42.948
C   44.531   2.142   42.165
C   45.853   2.021   42.967
C   47.123   2.346   42.197
C   48.233   1.231   42.232
C   47.711   3.719   42.731
C   47.047   4.833   41.863
C   46.662   6.038   42.768
C   45.521   6.930   42.254
C   45.665   8.398   42.774
C   44.144   6.352   42.585
H   39.090   1.541   32.131
H   38.345   0.794   25.923
H   32.033   2.011   26.453
H   35.050   3.056   34.416
H   37.550   1.550   34.248
H   36.883   4.329   34.279
H   37.749   4.094   32.829
H   38.607   3.606   34.300
H   35.570   0.049   34.632
H   33.948   0.664   34.257
H   35.153   0.217   36.556
H   33.579   1.014   36.401
H   41.850   -0.099   30.400
H   40.778   0.018   31.643
H   41.412   1.565   30.805
H   42.609   0.678   28.442
H   43.033   -0.339   27.032
H   42.052   -0.988   28.427
H   36.180   0.110   24.575
H   33.774   1.756   24.630
H   37.039   1.704   23.353
H   37.141   2.846   24.723
H   35.709   2.759   23.662
H   34.385   -0.746   24.178
H   32.780   0.154   24.261
H   32.111   -1.309   25.762
H   33.556   -1.176   26.899
H   33.672   -2.149   25.461
H   29.174   2.827   29.027
H   30.015   2.600   27.494
H   29.951   4.200   28.182
H   32.017   1.936   33.538
H   30.776   4.788   36.353
H   31.301   5.856   34.997
H   32.502   5.290   36.098
H   36.324   3.957   38.407
H   37.478   3.630   37.148
H   39.169   3.075   38.630
H   35.979   1.930   40.200
H   36.813   2.134   41.802
H   36.946   0.623   40.970
H   39.154   2.583   41.902
H   40.310   2.521   40.489
H   40.348   0.284   40.408
H   39.062   -0.048   41.501
H   40.647   -0.402   42.966
H   40.760   1.268   43.296
H   42.457   1.016   41.070
H   42.110   -1.440   41.562
H   43.514   -1.374   42.664
H   43.531   -0.987   40.974
H   43.756   0.939   43.810
H   42.721   2.299   43.269
H   44.296   3.188   41.968
H   44.706   1.789   41.149
H   45.871   0.975   43.272
H   45.751   2.615   43.876
H   46.755   2.387   41.172
H   48.302   0.935   41.186
H   47.914   0.395   42.854
H   49.147   1.566   42.724
H   48.771   3.920   42.576
H   47.470   3.823   43.789
H   46.164   4.543   41.293
H   47.773   5.224   41.150
H   47.547   6.673   42.808
H   46.374   5.731   43.773
H   45.556   7.008   41.167
H   46.160   9.104   42.107
H   46.286   8.343   43.668
H   44.654   8.777   42.921
H   44.228   5.582   43.352
H   43.660   5.876   41.732
H   43.422   7.090   42.936
