140
37
Mg   53.383   23.828   44.802
C   50.657   26.027   44.379
C   51.311   21.191   44.182
C   56.136   21.917   44.230
C   55.474   26.639   45.127
N   51.167   23.633   44.113
C   50.253   24.675   44.215
C   48.804   24.127   44.252
C   49.078   22.646   44.564
C   50.547   22.436   44.218
C   48.793   22.171   46.010
C   47.889   24.353   43.013
C   48.447   24.264   41.612
C   47.917   23.040   40.773
O   47.625   21.988   41.325
O   47.811   23.301   39.406
N   53.752   21.846   44.269
C   52.703   20.901   44.089
C   53.295   19.603   43.985
C   54.754   19.744   43.965
C   54.919   21.241   44.152
C   52.348   18.391   43.756
C   55.763   18.566   43.844
O   55.463   17.366   43.825
C   57.208   18.880   43.896
N   55.568   24.228   44.595
C   56.515   23.260   44.386
C   57.942   23.868   44.217
C   57.650   25.384   44.664
C   56.126   25.445   44.860
C   58.909   23.013   45.130
C   58.207   26.531   43.667
C   57.240   26.923   42.495
N   53.175   25.895   44.859
C   54.104   26.905   45.079
C   53.394   28.200   45.163
C   52.066   27.873   44.853
C   51.999   26.494   44.627
C   54.144   29.439   45.502
C   50.760   28.436   44.743
O   50.430   29.599   44.946
C   49.775   27.234   44.447
C   49.237   27.484   43.080
O   49.900   27.580   42.037
O   47.882   27.714   43.173
C   47.124   27.930   41.955
C   47.391   22.087   38.632
C   48.254   22.045   37.456
C   48.381   20.992   36.597
C   47.608   19.722   36.601
C   49.208   21.256   35.300
C   50.688   20.867   35.316
C   51.106   19.690   34.435
C   52.675   19.289   34.600
C   53.579   19.952   33.537
C   52.818   17.706   34.448
C   52.049   17.214   33.168
C   53.022   16.223   32.388
C   52.391   14.953   31.809
C   52.261   13.812   32.842
C   53.294   14.455   30.566
C   52.784   15.081   29.198
C   53.006   14.046   28.071
C   54.567   13.937   27.682
C   54.578   14.475   26.194
C   55.224   12.587   27.711
H   50.650   20.340   44.355
H   57.041   21.347   44.012
H   56.078   27.534   45.289
H   48.330   24.564   45.131
H   48.483   21.993   43.925
H   49.734   22.106   46.556
H   48.416   21.156   45.882
H   48.099   22.777   46.592
H   47.436   25.337   43.128
H   47.082   23.626   43.107
H   49.521   24.442   41.558
H   48.119   25.234   41.240
H   51.868   18.509   42.785
H   51.619   18.229   44.550
H   52.915   17.468   43.635
H   57.783   17.959   43.794
H   57.323   19.403   44.846
H   57.415   19.600   43.105
H   58.315   23.692   43.208
H   58.037   25.620   45.656
H   59.743   22.643   44.533
H   58.489   22.175   45.686
H   59.359   23.787   45.751
H   59.164   26.266   43.217
H   58.515   27.433   44.195
H   56.626   27.762   42.824
H   56.588   26.086   42.243
H   57.955   27.202   41.721
H   54.559   29.246   46.492
H   53.479   30.303   45.509
H   54.923   29.548   44.748
H   48.989   26.994   45.163
H   46.628   28.891   42.094
H   46.327   27.188   41.906
H   47.742   27.930   41.057
H   46.367   22.164   38.266
H   47.621   21.145   39.129
H   48.873   22.904   37.197
H   47.495   19.446   37.650
H   47.939   18.950   35.907
H   46.579   20.038   36.431
H   49.250   22.292   34.965
H   48.732   20.678   34.508
H   50.929   20.549   36.331
H   51.311   21.736   35.107
H   50.922   19.965   33.397
H   50.442   18.842   34.607
H   53.131   19.703   35.500
H   52.952   20.434   32.787
H   54.302   19.184   33.261
H   54.124   20.783   33.986
H   52.311   17.260   35.303
H   53.838   17.349   34.592
H   51.663   17.968   32.482
H   51.202   16.601   33.476
H   54.001   16.124   32.858
H   53.365   16.830   31.551
H   51.401   15.315   31.529
H   52.915   14.004   33.693
H   52.408   12.832   32.388
H   51.219   13.698   33.138
H   53.285   13.365   30.565
H   54.296   14.842   30.750
H   53.271   16.045   29.048
H   51.703   15.211   29.259
H   52.327   14.233   27.238
H   52.648   13.087   28.446
H   55.190   14.672   28.191
H   54.083   15.446   26.168
H   53.988   13.768   25.611
H   55.589   14.551   25.794
H   55.148   12.034   26.775
H   54.744   11.992   28.488
H   56.287   12.615   27.953
