140
15
Mg   35.020   49.517   25.766
C   35.020   47.936   28.871
C   33.957   52.362   27.294
C   34.908   51.130   22.710
C   35.696   46.517   24.159
N   34.338   50.018   27.850
C   34.625   49.233   28.980
C   34.476   49.989   30.270
C   34.168   51.484   29.716
C   34.140   51.277   28.165
C   32.934   52.142   30.245
C   35.692   50.061   31.165
C   35.423   49.689   32.694
C   33.950   49.522   33.205
O   33.329   48.506   33.434
O   33.379   50.680   33.408
N   34.500   51.453   25.059
C   34.052   52.505   25.861
C   33.586   53.583   25.024
C   33.913   53.244   23.652
C   34.495   51.930   23.766
C   32.866   54.826   25.645
C   33.775   54.067   22.373
O   34.048   53.614   21.265
C   33.129   55.444   22.556
N   35.150   48.907   23.777
C   35.197   49.772   22.688
C   35.926   49.133   21.474
C   36.206   47.705   21.955
C   35.640   47.689   23.391
C   35.018   49.060   20.217
C   37.796   47.321   21.898
C   38.085   46.462   20.632
N   35.413   47.544   26.317
C   35.625   46.351   25.593
C   35.901   45.295   26.481
C   35.682   45.876   27.728
C   35.353   47.226   27.588
C   36.323   43.886   26.066
C   35.568   45.539   29.166
O   35.744   44.521   29.721
C   35.176   46.896   30.002
C   33.950   46.529   30.755
O   32.805   46.881   30.521
O   34.285   45.770   31.866
C   33.249   45.230   32.789
C   32.107   50.740   34.206
C   31.582   52.130   34.174
C   30.461   52.512   34.763
C   29.537   51.597   35.695
C   30.214   53.951   34.935
C   31.053   54.517   36.136
C   31.991   55.592   35.735
C   31.873   56.861   36.587
C   33.171   57.640   36.582
C   30.680   57.816   36.200
C   30.126   58.553   37.396
C   30.284   60.091   37.203
C   28.919   60.830   36.894
C   29.096   61.876   35.793
C   28.322   61.505   38.218
C   26.798   61.625   38.190
C   26.247   63.109   38.243
C   25.964   63.777   36.928
C   26.654   65.133   36.815
C   24.394   64.004   36.817
H   33.584   53.277   27.759
H   35.120   51.563   21.730
H   35.968   45.581   23.667
H   33.597   49.645   30.815
H   35.037   52.111   29.915
H   32.145   51.445   30.528
H   32.531   52.919   29.595
H   33.315   52.631   31.141
H   36.149   51.050   31.149
H   36.469   49.405   30.774
H   35.891   50.489   33.269
H   35.943   48.757   32.912
H   33.489   55.117   26.490
H   31.920   54.427   26.010
H   32.841   55.701   24.995
H   33.038   55.909   21.574
H   33.760   56.142   23.106
H   32.086   55.369   22.862
H   36.834   49.724   21.345
H   35.653   46.979   21.359
H   34.241   49.823   20.265
H   34.620   48.075   19.975
H   35.602   49.536   19.429
H   38.196   46.787   22.761
H   38.438   48.187   21.736
H   37.316   46.441   19.860
H   38.204   45.430   20.962
H   38.915   46.818   20.021
H   36.875   43.479   26.914
H   37.018   43.842   25.228
H   35.459   43.267   25.825
H   36.020   47.195   30.624
H   33.056   44.257   32.337
H   32.274   45.707   32.702
H   33.637   45.142   33.804
H   32.253   50.255   35.171
H   31.351   50.115   33.730
H   32.200   52.797   33.574
H   29.502   50.554   35.379
H   28.516   51.940   35.526
H   29.832   51.635   36.744
H   29.125   53.999   34.952
H   30.424   54.311   33.928
H   31.733   53.722   36.442
H   30.277   54.825   36.837
H   31.743   55.797   34.694
H   33.020   55.233   35.717
H   31.732   56.548   37.621
H   33.942   57.160   35.979
H   33.442   57.578   37.636
H   33.057   58.707   36.391
H   29.961   57.078   35.846
H   31.029   58.414   35.358
H   30.599   58.192   38.310
H   29.069   58.336   37.546
H   31.011   60.277   36.412
H   30.815   60.501   38.062
H   28.111   60.142   36.644
H   28.513   61.642   34.902
H   30.134   61.869   35.459
H   28.757   62.854   36.135
H   28.794   62.484   38.304
H   28.613   60.931   39.097
H   26.427   61.233   39.137
H   26.361   61.006   37.406
H   26.836   63.761   38.888
H   25.319   63.013   38.807
H   26.358   63.300   36.030
H   27.690   65.002   36.501
H   26.663   65.809   37.670
H   26.061   65.605   36.031
H   24.072   64.305   35.820
H   24.128   64.843   37.459
H   23.861   63.117   37.159
