140
11
Mg   1.296   7.713   26.881
C   1.469   9.827   29.670
C   2.426   5.069   28.947
C   1.473   5.725   24.134
C   0.925   10.500   24.877
N   1.699   7.491   29.049
C   1.515   8.496   30.003
C   1.438   7.843   31.430
C   1.833   6.388   31.152
C   2.052   6.305   29.601
C   3.120   6.017   31.937
C   0.040   8.068   31.993
C   -0.120   8.135   33.503
C   1.058   7.663   34.385
O   1.968   8.419   34.814
O   0.992   6.369   34.688
N   1.848   5.681   26.535
C   2.311   4.776   27.509
C   2.635   3.496   26.904
C   2.313   3.591   25.493
C   1.875   5.044   25.335
C   3.039   2.244   27.693
C   2.375   2.554   24.388
O   2.034   2.844   23.249
C   2.647   1.145   24.752
N   1.137   8.093   24.789
C   1.154   7.085   23.873
C   0.778   7.642   22.475
C   0.532   9.183   22.709
C   0.765   9.294   24.238
C   1.893   7.336   21.459
C   -0.896   9.678   22.357
C   -0.863   10.382   21.004
N   1.309   9.793   27.107
C   1.223   10.824   26.232
C   1.508   12.069   26.986
C   1.503   11.757   28.314
C   1.423   10.341   28.326
C   1.553   13.422   26.296
C   1.558   12.263   29.692
O   1.685   13.415   30.089
C   1.448   11.035   30.575
C   2.560   11.139   31.533
O   3.766   10.897   31.389
O   2.048   11.657   32.705
C   2.992   11.909   33.772
C   1.850   5.854   35.776
C   0.936   4.960   36.568
C   1.043   4.369   37.769
C   2.171   4.614   38.705
C   0.051   3.359   38.261
C   0.073   1.986   37.469
C   0.287   0.820   38.371
C   1.527   -0.021   37.974
C   2.831   0.499   38.504
C   1.298   -1.513   38.211
C   1.550   -1.965   39.728
C   0.370   -2.793   40.307
C   0.875   -4.131   40.706
C   -0.302   -5.191   40.649
C   1.362   -4.103   42.193
C   2.569   -5.123   42.367
C   3.935   -4.420   42.446
C   4.586   -4.175   41.107
C   5.255   -5.449   40.467
C   5.483   -2.955   41.201
H   2.696   4.262   29.631
H   1.452   4.994   23.323
H   0.893   11.330   24.168
H   2.218   8.406   31.944
H   1.060   5.777   31.618
H   4.004   5.855   31.320
H   2.971   4.998   32.293
H   3.382   6.771   32.679
H   -0.561   7.283   31.533
H   -0.374   8.974   31.552
H   -1.025   7.596   33.780
H   -0.318   9.198   33.645
H   3.221   2.428   28.752
H   3.953   1.821   27.274
H   2.289   1.472   27.525
H   1.819   0.778   25.359
H   3.661   1.027   25.134
H   2.616   0.489   23.882
H   -0.106   7.103   22.135
H   1.345   9.682   22.180
H   2.332   8.190   20.944
H   1.310   6.771   20.732
H   2.770   6.846   21.881
H   -1.172   10.517   22.996
H   -1.645   8.886   22.343
H   -1.712   9.953   20.472
H   -0.023   10.097   20.371
H   -0.941   11.469   21.039
H   1.595   13.389   25.207
H   2.385   14.038   26.635
H   0.589   13.910   26.444
H   0.477   11.069   31.068
H   3.810   12.497   33.355
H   3.406   11.001   34.211
H   2.519   12.681   34.378
H   2.152   6.633   36.476
H   2.703   5.359   35.311
H   0.053   4.610   36.034
H   3.001   3.927   38.542
H   1.900   4.444   39.747
H   2.531   5.643   38.732
H   -0.921   3.851   38.237
H   0.210   3.204   39.328
H   0.910   2.081   36.778
H   -0.826   1.951   36.852
H   -0.549   0.121   38.331
H   0.357   1.088   39.425
H   1.736   0.089   36.910
H   3.085   1.432   38.000
H   3.578   -0.270   38.309
H   2.837   0.758   39.563
H   2.025   -2.147   37.704
H   0.363   -1.845   37.761
H   1.593   -1.129   40.425
H   2.466   -2.529   39.907
H   -0.447   -2.892   39.592
H   -0.012   -2.240   41.166
H   1.646   -4.517   40.038
H   -1.216   -4.644   40.880
H   -0.213   -5.995   41.379
H   -0.458   -5.565   39.637
H   0.465   -4.410   42.731
H   1.641   -3.099   42.514
H   2.701   -5.746   41.482
H   2.363   -5.808   43.189
H   4.571   -5.091   43.024
H   3.623   -3.495   42.931
H   3.790   -3.892   40.418
H   5.204   -6.296   41.151
H   6.295   -5.212   40.246
H   4.825   -5.759   39.515
H   5.912   -2.904   42.202
H   4.893   -2.042   41.120
H   6.387   -3.056   40.601
