140
36
Mg   26.405   0.553   30.048
C   28.591   -0.081   32.817
C   23.752   0.878   32.061
C   24.275   0.795   27.243
C   28.913   -0.730   27.981
N   26.264   0.405   32.204
C   27.277   0.322   33.109
C   26.668   0.536   34.519
C   25.092   0.717   34.218
C   24.971   0.584   32.672
C   24.134   -0.291   34.864
C   27.397   1.708   35.312
C   26.800   2.173   36.612
C   27.524   2.089   37.970
O   28.319   2.901   38.481
O   26.983   1.010   38.659
N   24.311   0.915   29.758
C   23.391   1.025   30.731
C   22.119   1.236   30.173
C   22.285   1.183   28.750
C   23.679   0.907   28.526
C   20.853   1.427   30.970
C   21.226   1.259   27.703
O   21.532   1.308   26.529
C   19.810   1.559   28.018
N   26.686   0.337   27.963
C   25.642   0.463   27.030
C   26.179   0.228   25.600
C   27.684   -0.111   25.836
C   27.824   -0.109   27.318
C   25.377   -0.868   24.874
C   28.777   0.731   25.206
C   30.096   0.056   24.784
N   28.352   -0.232   30.274
C   29.229   -0.745   29.366
C   30.496   -1.035   29.994
C   30.360   -0.735   31.331
C   28.961   -0.392   31.467
C   31.686   -1.812   29.314
C   30.947   -0.740   32.641
O   32.074   -1.095   32.977
C   29.828   -0.365   33.674
C   29.650   -1.520   34.566
O   29.082   -2.574   34.304
O   30.053   -1.116   35.839
C   29.708   -2.016   36.932
C   27.454   0.782   40.041
C   26.235   0.632   40.951
C   26.036   0.964   42.192
C   27.013   1.629   43.186
C   24.698   0.443   42.733
C   24.057   1.186   43.915
C   22.516   1.060   43.917
C   21.914   0.349   45.212
C   20.846   -0.574   44.801
C   21.319   1.442   46.094
C   22.443   2.056   46.896
C   21.903   2.457   48.220
C   22.386   3.964   48.544
C   22.597   4.036   50.053
C   21.303   4.952   48.008
C   21.751   6.316   47.432
C   21.877   6.222   45.905
C   23.270   6.614   45.387
C   23.408   8.161   45.283
C   23.548   5.979   43.948
H   22.895   0.935   32.735
H   23.679   0.793   26.328
H   29.747   -1.217   27.472
H   26.842   -0.409   35.034
H   24.663   1.668   34.533
H   23.323   0.223   35.380
H   24.603   -0.916   35.624
H   23.708   -1.002   34.157
H   27.403   2.540   34.608
H   28.428   1.431   35.533
H   25.785   1.782   36.685
H   26.675   3.253   36.539
H   20.959   1.364   32.053
H   20.186   0.635   30.630
H   20.415   2.381   30.673
H   19.443   0.812   28.721
H   19.234   1.645   27.096
H   19.831   2.542   28.489
H   25.940   1.168   25.103
H   27.782   -1.144   25.504
H   24.309   -0.689   24.995
H   25.705   -1.877   25.126
H   25.730   -0.703   23.855
H   29.176   1.305   26.042
H   28.428   1.382   24.404
H   30.003   -1.016   24.961
H   30.909   0.406   25.420
H   30.390   0.294   23.761
H   32.118   -2.509   30.033
H   32.427   -1.096   28.959
H   31.270   -2.289   28.428
H   30.184   0.417   34.345
H   29.515   -3.051   36.651
H   28.881   -1.527   37.446
H   30.622   -2.042   37.526
H   27.984   1.588   40.548
H   27.934   -0.195   39.988
H   25.383   0.195   40.430
H   28.026   1.542   42.794
H   26.977   1.002   44.077
H   26.698   2.640   43.446
H   24.838   -0.613   42.963
H   24.020   0.549   41.887
H   24.199   2.260   43.794
H   24.525   0.843   44.837
H   22.313   0.551   42.974
H   22.138   2.081   43.868
H   22.683   -0.161   45.793
H   20.663   -1.287   45.606
H   21.085   -1.172   43.922
H   19.861   -0.108   44.812
H   20.558   0.959   46.707
H   20.779   2.156   45.471
H   23.040   2.770   46.330
H   23.174   1.279   47.121
H   22.275   1.664   48.869
H   20.814   2.435   48.188
H   23.313   4.149   48.000
H   23.572   4.520   50.121
H   22.628   3.050   50.517
H   21.803   4.629   50.508
H   20.647   5.237   48.831
H   20.585   4.454   47.356
H   22.757   6.509   47.805
H   21.186   7.169   47.807
H   21.203   6.949   45.452
H   21.532   5.290   45.458
H   24.085   6.288   46.034
H   24.005   8.616   46.073
H   22.468   8.667   45.506
H   23.748   8.474   44.296
H   23.342   6.670   43.131
H   22.817   5.193   43.760
H   24.552   5.562   43.868
