140
5
Mg   24.702   -6.570   46.238
C   26.591   -3.888   44.949
C   22.168   -5.729   44.080
C   23.253   -9.518   46.984
C   27.857   -7.785   47.561
N   24.490   -5.048   44.676
C   25.321   -4.025   44.388
C   24.799   -3.164   43.274
C   23.307   -3.634   43.146
C   23.318   -4.890   44.017
C   22.150   -2.554   43.333
C   25.596   -3.181   41.920
C   25.827   -1.771   41.243
C   25.571   -1.675   39.782
O   24.929   -0.771   39.257
O   26.082   -2.744   39.031
N   22.936   -7.474   45.666
C   21.996   -6.880   44.830
C   20.892   -7.773   44.720
C   21.101   -8.836   45.564
C   22.460   -8.729   46.130
C   19.789   -7.542   43.726
C   20.159   -10.045   45.666
O   19.034   -10.035   45.281
C   20.471   -11.203   46.401
N   25.449   -8.336   47.146
C   24.571   -9.387   47.454
C   25.285   -10.533   48.197
C   26.795   -10.102   47.965
C   26.707   -8.635   47.675
C   24.824   -10.835   49.679
C   27.445   -10.927   46.864
C   28.587   -11.886   47.180
N   26.768   -5.917   46.420
C   27.888   -6.457   47.003
C   28.960   -5.519   46.963
C   28.587   -4.495   46.125
C   27.205   -4.781   45.840
C   30.333   -5.734   47.515
C   28.930   -3.248   45.435
O   29.975   -2.623   45.322
C   27.670   -2.852   44.612
C   27.248   -1.487   44.951
O   27.025   -0.631   44.100
O   27.237   -1.313   46.338
C   27.411   0.188   46.686
C   25.511   -3.000   37.740
C   25.446   -4.458   37.464
C   25.555   -5.229   36.320
C   25.637   -4.674   34.932
C   25.253   -6.756   36.364
C   24.030   -7.177   35.601
C   24.333   -8.296   34.565
C   24.138   -7.995   33.080
C   23.248   -9.036   32.364
C   25.528   -7.953   32.342
C   25.421   -7.239   30.970
C   26.350   -5.952   31.010
C   25.705   -4.729   30.291
C   25.636   -3.445   31.245
C   26.430   -4.519   28.928
C   25.629   -5.081   27.733
C   24.731   -3.920   27.225
C   23.338   -4.304   26.672
C   23.505   -4.634   25.135
C   22.364   -3.095   26.721
H   21.367   -5.463   43.387
H   22.748   -10.327   47.516
H   28.794   -8.273   47.836
H   24.788   -2.114   43.566
H   23.179   -4.026   42.137
H   21.267   -3.082   43.692
H   21.895   -2.271   42.312
H   22.519   -1.739   43.956
H   24.946   -3.715   41.227
H   26.569   -3.664   42.013
H   26.893   -1.580   41.366
H   25.272   -1.012   41.795
H   18.807   -7.399   44.178
H   19.550   -8.452   43.176
H   19.860   -6.747   42.984
H   20.594   -10.983   47.461
H   21.346   -11.646   45.926
H   19.591   -11.844   46.354
H   25.110   -11.440   47.618
H   27.367   -10.229   48.885
H   24.251   -11.760   49.752
H   24.191   -10.053   50.099
H   25.748   -10.988   50.236
H   27.745   -10.275   46.045
H   26.747   -11.610   46.380
H   29.121   -11.434   48.016
H   29.308   -11.904   46.362
H   28.195   -12.834   47.547
H   31.064   -5.741   46.707
H   30.336   -6.657   48.094
H   30.473   -4.844   48.128
H   27.987   -2.847   43.570
H   28.233   0.632   46.124
H   27.645   0.300   47.745
H   26.486   0.736   46.509
H   26.329   -2.504   37.218
H   24.551   -2.573   37.449
H   25.510   -5.088   38.351
H   25.435   -3.603   34.927
H   24.940   -5.016   34.167
H   26.636   -4.783   34.511
H   25.160   -7.100   37.394
H   26.028   -7.431   36.000
H   23.570   -6.325   35.101
H   23.243   -7.514   36.275
H   23.588   -9.032   34.869
H   25.318   -8.746   34.686
H   23.485   -7.135   32.936
H   22.953   -9.873   32.997
H   23.669   -9.522   31.483
H   22.248   -8.671   32.128
H   25.857   -8.989   32.259
H   26.265   -7.573   33.049
H   24.403   -6.909   30.762
H   25.683   -7.979   30.214
H   27.332   -6.304   30.695
H   26.631   -5.631   32.013
H   24.646   -4.903   30.100
H   26.577   -2.958   31.501
H   25.231   -3.777   32.201
H   24.915   -2.689   30.933
H   27.460   -4.874   28.920
H   26.527   -3.437   28.834
H   24.884   -5.795   28.082
H   26.139   -5.615   26.932
H   25.353   -3.527   26.422
H   24.629   -3.091   27.925
H   23.065   -5.280   27.074
H   24.362   -4.135   24.682
H   22.573   -4.316   24.669
H   23.583   -5.715   25.025
H   22.012   -3.188   27.748
H   21.484   -3.131   26.078
H   22.896   -2.144   26.679
