140
26
Mg   52.987   24.020   44.668
C   50.170   25.855   43.741
C   51.446   21.165   43.376
C   56.040   22.596   44.166
C   54.429   26.874   45.923
N   51.074   23.634   43.494
C   50.020   24.572   43.293
C   48.773   23.858   42.874
C   49.121   22.349   43.151
C   50.652   22.389   43.302
C   48.369   21.834   44.429
C   48.426   24.111   41.342
C   49.545   24.691   40.450
C   49.093   25.285   39.117
O   49.388   26.411   38.735
O   48.580   24.294   38.373
N   53.604   22.129   43.820
C   52.794   21.036   43.609
C   53.568   19.848   43.384
C   54.974   20.296   43.430
C   54.954   21.741   43.804
C   53.001   18.413   43.292
C   56.124   19.228   43.346
O   55.878   18.043   43.284
C   57.526   19.688   43.480
N   54.977   24.654   44.970
C   56.079   23.897   44.774
C   57.365   24.589   45.381
C   56.846   25.951   45.915
C   55.350   25.875   45.551
C   58.155   23.750   46.406
C   57.552   27.259   45.313
C   58.460   28.066   46.227
N   52.347   25.920   45.116
C   53.084   27.022   45.605
C   52.195   28.126   45.690
C   51.068   27.710   44.985
C   51.198   26.386   44.583
C   52.498   29.405   46.309
C   49.636   28.055   44.635
O   48.962   29.042   44.912
C   49.076   26.906   43.746
C   48.751   27.456   42.399
O   49.491   28.023   41.598
O   47.412   27.324   42.148
C   46.815   28.034   41.015
C   48.183   24.635   36.982
C   48.867   23.556   36.169
C   48.395   22.328   35.910
C   47.151   21.650   36.526
C   49.013   21.550   34.790
C   49.855   20.385   35.319
C   51.002   19.973   34.292
C   52.211   19.189   34.901
C   53.586   19.825   34.664
C   52.152   17.682   34.464
C   52.391   17.355   32.930
C   51.192   16.824   32.167
C   51.329   15.362   31.690
C   51.006   14.227   32.781
C   52.669   15.090   30.962
C   52.458   14.388   29.566
C   53.307   14.967   28.397
C   53.918   13.857   27.547
C   55.488   14.126   27.222
C   53.041   13.667   26.288
H   50.833   20.262   43.412
H   57.013   22.102   44.137
H   54.967   27.715   46.367
H   47.953   24.088   43.554
H   48.895   21.678   42.323
H   47.412   21.537   43.999
H   48.266   22.669   45.123
H   48.925   20.996   44.849
H   47.493   24.634   41.132
H   48.168   23.194   40.811
H   50.385   24.008   40.318
H   50.059   25.466   41.018
H   53.097   17.891   44.244
H   53.484   17.900   42.460
H   51.934   18.431   43.070
H   58.187   18.890   43.144
H   57.693   20.045   44.497
H   57.733   20.453   42.732
H   57.978   24.840   44.515
H   56.751   25.908   47.000
H   59.234   23.836   46.279
H   57.833   22.712   46.327
H   57.901   24.147   47.389
H   56.834   27.981   44.924
H   58.089   27.022   44.395
H   58.339   27.695   47.244
H   58.272   29.138   46.169
H   59.495   27.967   45.899
H   53.487   29.451   46.767
H   51.863   29.540   47.184
H   52.420   30.257   45.634
H   48.151   26.575   44.218
H   47.545   28.457   40.324
H   46.135   28.846   41.271
H   46.314   27.318   40.364
H   48.528   25.615   36.655
H   47.099   24.520   36.980
H   49.544   24.049   35.473
H   46.445   21.454   35.719
H   46.766   22.351   37.267
H   47.603   20.711   36.844
H   49.499   22.199   34.061
H   48.275   20.979   34.226
H   49.236   19.516   35.542
H   50.275   20.715   36.269
H   51.345   20.905   33.844
H   50.545   19.488   33.429
H   52.160   19.186   35.989
H   53.643   20.413   33.749
H   54.208   18.961   34.427
H   54.137   20.263   35.497
H   51.130   17.440   34.756
H   52.937   17.237   35.076
H   53.233   16.669   32.836
H   52.650   18.315   32.484
H   50.912   17.580   31.433
H   50.389   16.796   32.904
H   50.523   15.392   30.957
H   50.001   13.914   32.495
H   51.110   14.836   33.679
H   51.733   13.417   32.830
H   53.306   14.424   31.544
H   53.288   15.957   30.732
H   51.395   14.326   29.334
H   52.790   13.373   29.784
H   54.087   15.589   28.837
H   52.723   15.744   27.904
H   53.876   12.867   28.002
H   55.761   14.995   27.821
H   55.802   14.196   26.181
H   56.049   13.353   27.747
H   53.517   14.120   25.418
H   52.052   14.114   26.386
H   52.797   12.604   26.285
