140
9
Mg   23.939   -7.078   44.997
C   26.319   -4.594   43.795
C   21.581   -5.376   43.164
C   22.003   -9.872   45.416
C   26.719   -8.856   46.305
N   23.957   -5.063   43.839
C   25.008   -4.305   43.401
C   24.524   -3.240   42.421
C   22.982   -3.296   42.423
C   22.817   -4.705   43.177
C   22.276   -2.197   43.239
C   25.066   -3.505   40.980
C   25.533   -2.320   40.234
C   25.021   -2.070   38.858
O   24.067   -1.378   38.577
O   25.781   -2.767   37.956
N   22.048   -7.523   44.466
C   21.271   -6.675   43.708
C   19.955   -7.314   43.605
C   19.979   -8.592   44.253
C   21.354   -8.725   44.763
C   18.744   -6.570   43.098
C   18.895   -9.612   44.454
O   17.815   -9.494   44.002
C   19.003   -10.805   45.260
N   24.307   -9.173   45.756
C   23.343   -10.097   45.865
C   23.949   -11.400   46.499
C   25.291   -10.938   47.163
C   25.489   -9.587   46.371
C   22.987   -12.106   47.620
C   26.431   -11.970   47.106
C   27.479   -11.810   48.188
N   26.032   -6.809   45.181
C   26.974   -7.608   45.766
C   28.262   -6.917   45.677
C   28.041   -5.749   44.840
C   26.682   -5.756   44.612
C   29.603   -7.324   46.165
C   28.711   -4.634   44.173
O   29.915   -4.356   44.193
C   27.572   -3.891   43.368
C   27.610   -2.440   43.781
O   27.480   -1.529   42.954
O   27.899   -2.279   45.073
C   27.824   -0.971   45.707
C   25.256   -2.759   36.542
C   25.042   -4.137   36.137
C   25.213   -4.958   35.063
C   25.751   -4.390   33.764
C   24.767   -6.411   35.054
C   23.468   -6.618   34.335
C   23.460   -7.514   33.072
C   22.875   -6.727   31.894
C   21.357   -6.654   31.900
C   23.358   -7.308   30.609
C   23.754   -6.132   29.621
C   25.236   -5.657   29.752
C   25.511   -4.249   29.106
C   25.869   -3.209   30.192
C   26.571   -4.287   28.013
C   25.966   -4.594   26.638
C   25.279   -3.344   25.880
C   23.793   -3.389   25.770
C   23.343   -3.654   24.300
C   23.003   -2.233   26.454
H   20.764   -4.877   42.639
H   21.310   -10.670   45.691
H   27.523   -9.379   46.828
H   24.928   -2.306   42.814
H   22.516   -3.343   41.439
H   21.350   -1.900   42.748
H   22.902   -1.305   43.260
H   22.050   -2.560   44.242
H   24.274   -3.956   40.381
H   25.827   -4.285   41.028
H   26.605   -2.489   40.126
H   25.341   -1.409   40.800
H   17.942   -7.129   42.616
H   19.050   -5.797   42.393
H   18.217   -6.140   43.950
H   19.312   -10.404   46.225
H   19.669   -11.562   44.846
H   18.012   -11.229   45.422
H   24.149   -11.989   45.604
H   25.139   -10.642   48.201
H   23.370   -12.134   48.641
H   22.877   -13.149   47.326
H   21.977   -11.696   47.606
H   26.808   -11.954   46.084
H   26.030   -12.977   47.227
H   28.436   -11.825   47.668
H   27.511   -12.681   48.843
H   27.428   -10.873   48.742
H   30.438   -7.113   45.497
H   29.604   -8.392   46.381
H   29.712   -6.859   47.146
H   27.729   -3.998   42.295
H   26.914   -0.434   45.438
H   28.774   -0.462   45.545
H   28.002   -1.137   46.769
H   25.852   -2.116   35.895
H   24.230   -2.390   36.541
H   24.647   -4.681   36.995
H   26.698   -4.876   33.532
H   25.919   -3.321   33.889
H   24.886   -4.460   33.103
H   24.716   -6.790   36.075
H   25.649   -6.816   34.558
H   22.964   -5.681   34.099
H   22.823   -7.056   35.096
H   22.869   -8.427   33.146
H   24.511   -7.729   32.878
H   23.382   -5.766   31.992
H   20.877   -7.441   32.483
H   20.892   -6.574   30.918
H   21.161   -5.721   32.428
H   22.606   -7.846   30.031
H   24.183   -8.017   30.680
H   22.978   -5.380   29.769
H   23.696   -6.496   28.595
H   25.880   -6.436   29.343
H   25.471   -5.592   30.814
H   24.579   -3.892   28.670
H   25.024   -3.226   30.880
H   26.052   -2.294   29.630
H   26.818   -3.418   30.686
H   27.485   -4.865   28.150
H   26.865   -3.238   28.011
H   25.216   -5.359   26.836
H   26.798   -4.996   26.059
H   25.802   -3.324   24.924
H   25.594   -2.480   26.464
H   23.467   -4.274   26.317
H   22.585   -2.898   24.099
H   22.830   -4.614   24.245
H   24.094   -3.495   23.526
H   21.979   -2.597   26.539
H   22.959   -1.404   25.748
H   23.337   -1.924   27.445
