140
36
Mg   7.096   57.088   41.740
C   6.079   53.795   41.079
C   10.143   56.333   40.643
C   7.539   60.381   41.559
C   3.697   57.720   42.686
N   8.003   55.229   41.067
C   7.441   54.031   40.687
C   8.553   53.019   40.281
C   9.828   53.805   40.596
C   9.314   55.261   40.804
C   10.692   53.407   41.817
C   8.493   52.541   38.782
C   9.064   51.228   38.412
C   8.543   50.743   36.996
O   7.423   50.982   36.657
O   9.499   50.036   36.274
N   8.662   58.218   41.236
C   9.868   57.734   40.827
C   10.783   58.822   40.610
C   10.013   60.025   40.784
C   8.628   59.601   41.167
C   12.200   58.696   40.297
C   10.593   61.359   40.573
O   11.802   61.579   40.520
C   9.594   62.545   40.293
N   5.716   58.851   41.878
C   6.218   60.083   41.876
C   5.159   61.180   42.201
C   3.833   60.257   42.507
C   4.449   58.891   42.316
C   5.564   62.299   43.256
C   2.589   60.596   41.643
C   1.260   60.883   42.445
N   5.280   56.015   41.965
C   3.993   56.353   42.432
C   3.188   55.163   42.618
C   3.953   54.125   42.086
C   5.225   54.721   41.663
C   1.889   55.091   43.195
C   3.968   52.713   41.835
O   3.114   51.829   42.006
C   5.405   52.431   41.144
C   5.153   51.884   39.746
O   4.689   52.554   38.843
O   5.344   50.550   39.735
C   4.567   49.880   38.728
C   9.140   49.644   34.985
C   9.333   50.806   34.057
C   8.625   51.565   33.217
C   7.041   51.421   33.069
C   9.403   52.630   32.454
C   8.946   54.069   32.953
C   7.689   54.725   32.233
C   8.067   55.950   31.299
C   7.728   57.380   31.822
C   7.429   55.675   29.907
C   8.356   54.934   28.932
C   8.854   55.834   27.758
C   10.301   56.422   27.988
C   10.482   57.795   27.202
C   11.465   55.438   27.747
C   12.194   55.009   29.025
C   13.714   54.931   28.923
C   14.426   55.959   29.819
C   15.863   56.185   29.291
C   14.456   55.618   31.259
H   11.156   56.110   40.301
H   7.608   61.469   41.622
H   2.705   57.886   43.113
H   8.556   52.189   40.988
H   10.457   53.705   39.711
H   10.269   52.560   42.358
H   10.642   54.294   42.448
H   11.708   53.219   41.471
H   9.130   53.222   38.218
H   7.443   52.596   38.492
H   8.705   50.629   39.248
H   10.142   51.202   38.571
H   12.265   59.013   39.256
H   12.530   57.677   40.500
H   12.812   59.339   40.929
H   8.782   62.155   39.679
H   10.140   63.312   39.745
H   9.262   63.004   41.225
H   4.923   61.773   41.318
H   3.619   60.385   43.568
H   5.543   63.324   42.887
H   6.471   61.982   43.771
H   4.726   62.157   43.938
H   2.401   59.703   41.047
H   2.889   61.435   41.016
H   1.461   60.796   43.513
H   0.443   60.210   42.184
H   1.140   61.959   42.318
H   1.086   55.280   42.483
H   1.851   55.863   43.963
H   1.802   54.110   43.663
H   5.944   51.664   41.700
H   4.508   50.437   37.793
H   3.593   49.548   39.090
H   5.135   48.985   38.475
H   8.175   49.146   34.887
H   9.875   48.882   34.727
H   10.400   51.030   34.058
H   6.805   50.886   32.150
H   6.654   52.440   33.041
H   6.659   50.950   33.975
H   9.194   52.552   31.387
H   10.472   52.633   32.667
H   9.797   54.750   32.960
H   8.650   53.953   33.995
H   7.003   55.041   33.018
H   7.326   53.925   31.587
H   9.155   55.990   31.241
H   8.572   58.069   31.836
H   7.393   57.340   32.858
H   7.099   57.937   31.127
H   7.205   56.663   29.505
H   6.528   55.068   29.991
H   7.864   54.067   28.492
H   9.223   54.635   29.519
H   8.164   56.597   27.398
H   8.880   55.068   26.983
H   10.124   56.721   29.021
H   9.537   58.016   26.705
H   11.222   57.895   26.408
H   10.583   58.528   28.003
H   12.267   55.910   27.180
H   11.055   54.517   27.332
H   11.954   53.960   29.197
H   11.832   55.648   29.830
H   13.970   54.883   27.864
H   13.930   53.952   29.349
H   13.921   56.923   29.766
H   16.059   57.248   29.430
H   15.915   55.948   28.228
H   16.656   55.516   29.625
H   13.816   56.334   31.773
H   15.431   55.780   31.719
H   14.128   54.590   31.411
