140
20
Mg   16.128   51.509   25.155
C   18.069   50.483   27.853
C   13.604   52.411   27.313
C   14.053   51.878   22.421
C   18.478   50.008   23.146
N   15.912   51.603   27.289
C   16.882   51.167   28.226
C   16.308   51.407   29.675
C   14.830   51.827   29.430
C   14.797   51.930   27.903
C   13.747   50.920   29.948
C   17.207   52.490   30.346
C   16.829   52.974   31.730
C   15.814   52.067   32.544
O   16.156   50.988   32.922
O   14.602   52.646   32.930
N   14.137   52.131   24.868
C   13.286   52.501   25.906
C   12.002   53.008   25.364
C   12.180   52.924   24.005
C   13.540   52.330   23.699
C   10.905   53.616   26.248
C   11.247   53.305   22.870
O   11.483   53.261   21.679
C   9.790   53.688   23.103
N   16.336   51.106   23.055
C   15.318   51.337   22.113
C   15.754   50.810   20.710
C   17.223   50.292   21.012
C   17.413   50.586   22.438
C   14.897   49.778   20.004
C   18.339   50.838   20.023
C   18.217   50.157   18.691
N   18.046   50.661   25.377
C   18.820   50.039   24.513
C   19.917   49.538   25.104
C   19.699   49.734   26.462
C   18.494   50.360   26.583
C   21.090   48.981   24.430
C   20.300   49.435   27.698
O   21.388   48.999   28.014
C   19.229   49.918   28.683
C   18.915   48.868   29.692
O   18.438   47.778   29.443
O   19.128   49.422   30.856
C   18.720   48.754   32.073
C   13.751   51.861   33.736
C   12.551   52.716   34.109
C   11.208   52.533   33.913
C   10.557   51.201   33.529
C   10.190   53.595   34.299
C   9.953   53.621   35.829
C   9.925   55.110   36.397
C   8.509   55.739   36.078
C   8.622   57.015   35.275
C   7.642   55.971   37.315
C   6.150   55.839   37.230
C   5.457   56.537   38.372
C   4.817   57.849   38.019
C   5.755   59.175   38.193
C   3.506   58.038   38.889
C   2.447   57.170   38.223
C   1.630   56.362   39.229
C   0.110   56.304   39.002
C   -0.330   56.297   37.517
C   -0.658   57.357   39.937
H   12.755   52.695   27.939
H   13.399   51.946   21.549
H   19.139   49.505   22.437
H   16.349   50.418   30.131
H   14.771   52.814   29.889
H   14.089   50.253   30.739
H   13.439   50.296   29.109
H   13.018   51.576   30.425
H   17.356   53.296   29.628
H   18.210   52.081   30.460
H   16.310   53.912   31.532
H   17.725   53.198   32.310
H   11.222   53.863   27.261
H   10.018   52.989   26.330
H   10.595   54.629   25.990
H   9.164   52.796   23.084
H   9.348   54.348   22.357
H   9.662   54.226   24.043
H   15.728   51.619   19.979
H   17.277   49.204   21.001
H   14.046   49.454   20.603
H   15.507   48.970   19.601
H   14.441   50.317   19.173
H   19.377   50.873   20.356
H   18.091   51.888   19.870
H   17.510   50.684   18.050
H   17.930   49.118   18.851
H   19.202   50.183   18.224
H   21.277   49.642   23.584
H   20.887   47.994   24.013
H   21.986   48.908   25.046
H   19.575   50.824   29.180
H   18.892   49.410   32.926
H   19.218   47.789   32.171
H   17.660   48.501   32.103
H   14.163   51.477   34.669
H   13.490   51.024   33.088
H   12.804   53.695   34.515
H   10.155   50.724   34.423
H   11.302   50.643   32.963
H   9.758   51.484   32.844
H   9.247   53.423   33.781
H   10.636   54.495   33.875
H   10.805   53.111   36.278
H   9.046   53.068   36.073
H   10.756   55.625   35.916
H   10.156   55.177   37.460
H   7.924   55.072   35.445
H   8.180   57.875   35.776
H   8.135   56.909   34.305
H   9.642   57.364   35.115
H   7.899   56.882   37.855
H   7.874   55.112   37.944
H   5.858   54.789   37.251
H   5.843   56.260   36.272
H   6.261   56.728   39.082
H   4.736   55.769   38.652
H   4.557   57.724   36.967
H   5.594   59.787   37.306
H   6.771   58.888   38.464
H   5.461   59.885   38.967
H   3.134   59.061   38.850
H   3.674   57.662   39.898
H   2.773   56.518   37.413
H   1.803   57.902   37.735
H   1.948   56.655   40.229
H   1.866   55.298   39.215
H   -0.241   55.327   39.333
H   -1.141   56.994   37.303
H   -0.911   55.391   37.346
H   0.601   56.385   36.957
H   -0.045   58.258   39.908
H   -0.459   56.856   40.885
H   -1.709   57.584   39.754
