140
27
Mg   25.399   51.293   26.224
C   23.496   52.578   28.828
C   27.782   50.177   28.538
C   27.654   50.834   23.705
C   23.222   52.645   23.959
N   25.553   51.363   28.388
C   24.630   51.886   29.278
C   25.060   51.631   30.716
C   26.495   51.009   30.564
C   26.631   50.868   29.052
C   27.735   51.784   31.181
C   24.061   50.774   31.546
C   23.722   51.337   32.909
C   24.968   51.452   33.841
O   25.868   52.254   33.747
O   24.757   50.613   34.959
N   27.385   50.559   26.153
C   28.166   50.071   27.164
C   29.192   49.334   26.672
C   29.247   49.608   25.220
C   28.036   50.406   24.977
C   30.013   48.386   27.475
C   30.160   48.999   24.188
O   30.071   49.203   22.972
C   31.144   47.950   24.589
N   25.465   51.805   24.135
C   26.486   51.450   23.313
C   26.197   51.868   21.892
C   24.717   52.185   21.956
C   24.382   52.177   23.437
C   26.981   53.065   21.231
C   23.874   51.337   21.013
C   23.136   50.075   21.636
N   23.569   52.318   26.300
C   22.835   52.868   25.351
C   21.587   53.530   25.883
C   21.779   53.391   27.262
C   23.063   52.744   27.424
C   20.494   54.208   25.147
C   21.261   53.683   28.552
O   20.293   54.330   28.927
C   22.312   53.225   29.554
C   22.672   54.237   30.488
O   23.595   55.047   30.332
O   21.759   54.333   31.460
C   21.720   55.649   32.270
C   25.755   50.871   36.036
C   25.182   50.120   37.316
C   25.217   50.484   38.630
C   26.159   51.620   39.022
C   24.398   49.774   39.681
C   25.285   48.843   40.512
C   25.294   47.365   40.084
C   26.279   46.552   40.911
C   27.226   45.689   39.991
C   25.575   45.638   42.047
C   26.407   45.745   43.358
C   25.700   46.574   44.560
C   26.525   47.708   45.211
C   26.153   48.025   46.646
C   26.547   48.971   44.314
C   27.789   49.852   44.593
C   27.366   51.284   45.047
C   28.063   52.457   44.176
C   29.451   52.814   44.740
C   27.201   53.743   44.021
H   28.579   49.964   29.255
H   28.163   50.462   22.813
H   22.522   52.989   23.195
H   25.014   52.581   31.248
H   26.586   50.135   31.209
H   27.161   52.610   31.601
H   28.437   52.124   30.420
H   28.306   51.120   31.830
H   24.486   49.781   31.695
H   23.214   50.496   30.919
H   22.905   50.822   33.415
H   23.342   52.345   32.740
H   31.052   48.709   27.533
H   30.053   47.343   27.164
H   29.743   48.330   28.530
H   31.710   48.259   25.468
H   31.821   47.663   23.785
H   30.589   47.057   24.877
H   26.383   51.081   21.162
H   24.572   53.248   21.762
H   27.798   52.690   20.615
H   27.378   53.691   22.030
H   26.455   53.657   20.483
H   24.393   51.047   20.100
H   23.085   51.955   20.583
H   22.091   50.319   21.827
H   23.648   49.765   22.547
H   23.196   49.208   20.977
H   20.451   53.909   24.099
H   20.825   55.246   25.156
H   19.468   54.050   25.479
H   21.939   52.403   30.166
H   21.983   56.493   31.632
H   22.392   55.508   33.116
H   20.728   55.762   32.708
H   25.682   51.866   36.475
H   26.777   50.502   35.944
H   24.444   49.350   37.091
H   26.865   51.988   38.278
H   26.798   51.360   39.865
H   25.648   52.540   39.303
H   23.522   49.319   39.219
H   23.969   50.560   40.301
H   25.021   48.837   41.570
H   26.331   49.145   40.558
H   25.478   47.236   39.018
H   24.275   47.030   40.277
H   26.960   47.213   41.446
H   26.906   45.520   38.962
H   27.319   44.681   40.395
H   28.184   46.208   39.998
H   25.508   44.613   41.684
H   24.564   45.997   42.239
H   27.337   46.273   43.146
H   26.562   44.702   43.634
H   25.403   45.836   45.305
H   24.736   46.990   44.267
H   27.539   47.314   45.269
H   25.810   49.050   46.785
H   26.985   48.044   47.351
H   25.382   47.354   47.025
H   25.699   49.645   44.439
H   26.496   48.637   43.278
H   28.294   50.102   43.660
H   28.488   49.433   45.317
H   27.570   51.311   46.118
H   26.291   51.464   45.066
H   28.245   52.066   43.175
H   30.265   52.140   44.473
H   29.416   52.989   45.815
H   29.858   53.737   44.327
H   27.847   54.572   44.311
H   26.317   53.684   44.654
H   26.919   53.842   42.972
