140
22
Mg   35.439   1.548   30.167
C   33.078   2.672   32.448
C   37.630   1.433   32.725
C   37.857   0.993   27.924
C   33.121   2.079   27.595
N   35.298   1.991   32.332
C   34.245   2.254   33.118
C   34.600   2.224   34.667
C   36.090   2.011   34.612
C   36.371   1.812   33.125
C   36.783   3.208   35.348
C   33.758   1.137   35.411
C   33.429   1.478   36.883
C   34.238   2.616   37.648
O   33.969   3.773   37.609
O   35.266   2.147   38.339
N   37.526   1.333   30.309
C   38.233   1.219   31.450
C   39.658   0.918   31.158
C   39.724   0.789   29.699
C   38.341   1.060   29.251
C   40.780   0.878   32.230
C   40.900   0.437   28.903
O   40.958   0.622   27.706
C   42.227   0.030   29.579
N   35.595   1.489   27.949
C   36.616   1.089   27.284
C   36.319   1.026   25.795
C   34.805   1.457   25.765
C   34.444   1.656   27.191
C   37.226   1.990   24.967
C   33.883   0.549   24.991
C   33.355   -0.846   25.628
N   33.487   2.046   30.034
C   32.681   2.226   28.952
C   31.398   2.845   29.364
C   31.497   2.900   30.725
C   32.803   2.496   31.084
C   30.233   3.288   28.527
C   30.749   3.395   31.880
O   29.683   3.976   31.973
C   31.733   3.163   33.106
C   31.841   4.442   33.758
O   32.250   5.496   33.316
O   31.488   4.306   35.058
C   31.473   5.592   35.812
C   36.095   3.198   39.021
C   37.314   2.721   39.729
C   37.418   2.215   41.003
C   36.287   1.961   41.946
C   38.880   2.179   41.571
C   39.415   0.708   41.663
C   39.978   0.227   43.040
C   41.467   -0.253   42.991
C   41.528   -1.701   43.541
C   42.562   0.666   43.603
C   43.189   1.563   42.524
C   43.766   2.887   43.018
C   45.208   3.116   42.351
C   46.343   2.442   43.172
C   45.604   4.597   42.282
C   44.702   5.309   41.283
C   43.766   6.475   41.840
C   44.145   7.992   41.603
C   44.568   8.383   40.194
C   45.391   8.227   42.563
H   38.262   1.301   33.605
H   38.671   0.637   27.288
H   32.525   2.420   26.746
H   34.204   3.212   34.905
H   36.486   1.113   35.087
H   37.498   3.695   34.684
H   37.340   2.790   36.187
H   36.055   3.910   35.753
H   34.285   0.214   35.650
H   33.003   0.647   34.795
H   33.602   0.616   37.526
H   32.358   1.660   36.974
H   40.990   -0.160   32.489
H   40.682   1.295   33.232
H   41.672   1.343   31.809
H   42.158   -0.815   30.265
H   42.545   1.003   29.954
H   42.948   -0.289   28.827
H   36.522   0.083   25.289
H   34.667   2.460   25.361
H   36.664   2.563   24.230
H   38.035   1.517   24.410
H   37.693   2.708   25.642
H   34.413   0.200   24.105
H   32.982   1.096   24.715
H   33.801   -0.932   26.619
H   33.757   -1.715   25.109
H   32.272   -0.960   25.680
H   30.633   3.907   27.723
H   29.613   3.886   29.195
H   29.685   2.412   28.181
H   31.314   2.436   33.801
H   31.156   6.436   35.199
H   32.418   5.925   36.241
H   30.708   5.490   36.582
H   35.492   3.541   39.861
H   36.349   4.062   38.406
H   38.221   2.924   39.160
H   36.120   2.842   42.567
H   36.550   1.094   42.551
H   35.351   1.672   41.467
H   38.942   2.613   42.569
H   39.462   2.822   40.911
H   40.252   0.633   40.969
H   38.608   0.089   41.270
H   39.305   -0.566   43.368
H   39.940   1.036   43.769
H   41.742   -0.206   41.937
H   42.446   -2.202   43.235
H   40.680   -2.269   43.157
H   41.556   -1.548   44.620
H   43.392   0.097   44.022
H   42.136   1.277   44.399
H   42.534   1.809   41.688
H   43.988   0.907   42.180
H   43.850   2.716   44.091
H   43.060   3.696   42.828
H   45.202   2.657   41.363
H   45.875   1.783   43.904
H   46.874   3.090   43.869
H   47.065   1.756   42.729
H   46.628   4.723   41.931
H   45.437   5.044   43.262
H   43.939   4.622   40.917
H   45.240   5.690   40.415
H   43.576   6.289   42.897
H   42.777   6.346   41.400
H   43.387   8.677   41.984
H   44.183   9.345   39.858
H   44.159   7.613   39.540
H   45.631   8.329   39.960
H   45.526   7.416   43.278
H   45.298   9.118   43.184
H   46.334   8.379   42.039
