140
33
Mg   48.183   15.897   28.484
C   46.177   15.619   31.388
C   50.250   18.000   30.218
C   50.072   16.061   25.810
C   45.832   14.009   26.757
N   48.095   16.777   30.558
C   47.232   16.364   31.571
C   47.758   16.947   32.946
C   48.943   17.866   32.473
C   49.057   17.572   30.960
C   48.742   19.445   32.685
C   48.199   15.902   33.923
C   48.032   16.337   35.452
C   49.109   15.892   36.414
O   49.910   14.973   36.224
O   49.140   16.682   37.574
N   49.868   16.961   28.165
C   50.595   17.776   28.956
C   51.822   18.213   28.312
C   51.797   17.649   26.969
C   50.569   16.803   26.916
C   52.898   19.021   29.020
C   52.861   17.747   25.868
O   52.812   17.098   24.828
C   54.098   18.549   26.038
N   47.884   15.293   26.533
C   48.915   15.371   25.605
C   48.583   14.682   24.277
C   47.145   14.231   24.531
C   46.929   14.512   25.999
C   48.579   15.704   23.005
C   46.976   12.728   24.145
C   47.801   11.645   24.938
N   46.381   15.057   28.941
C   45.545   14.252   28.115
C   44.370   13.979   28.833
C   44.570   14.452   30.143
C   45.825   15.092   30.163
C   43.186   13.198   28.267
C   43.958   14.473   31.434
O   42.896   14.006   31.859
C   44.987   15.168   32.343
C   44.431   16.484   32.885
O   44.118   17.504   32.238
O   44.295   16.380   34.281
C   44.085   17.702   34.936
C   50.281   16.452   38.557
C   50.647   17.664   39.283
C   51.881   18.118   39.610
C   53.226   17.428   39.434
C   51.994   19.464   40.446
C   52.477   20.722   39.614
C   53.600   21.607   40.254
C   54.978   21.536   39.516
C   56.100   21.107   40.471
C   55.349   22.895   38.896
C   54.599   23.276   37.619
C   55.294   23.980   36.496
C   55.115   23.339   35.022
C   56.314   23.838   34.152
C   53.827   23.896   34.495
C   53.268   23.131   33.244
C   52.653   24.164   32.255
C   52.619   23.719   30.750
C   54.037   24.022   30.124
C   51.501   24.321   29.954
H   50.882   18.688   30.783
H   50.747   16.170   24.959
H   45.081   13.410   26.237
H   46.983   17.572   33.390
H   49.863   17.562   32.971
H   48.587   20.057   31.796
H   49.569   19.825   33.284
H   47.860   19.734   33.256
H   49.256   15.730   33.722
H   47.671   14.978   33.688
H   47.120   15.807   35.724
H   47.864   17.410   35.533
H   52.816   19.102   30.104
H   53.068   19.987   28.545
H   53.769   18.394   28.831
H   53.850   19.380   26.699
H   54.306   18.865   25.016
H   54.993   18.058   26.422
H   49.260   13.851   24.080
H   46.358   14.850   24.101
H   47.581   15.845   22.588
H   49.223   15.341   22.204
H   48.850   16.723   23.279
H   47.428   12.645   23.157
H   45.902   12.582   24.032
H   47.081   10.874   25.212
H   48.342   12.028   25.802
H   48.577   11.193   24.321
H   42.809   13.405   27.265
H   42.369   13.467   28.936
H   43.380   12.126   28.302
H   45.343   14.423   33.055
H   44.506   18.496   34.319
H   44.608   17.673   35.892
H   43.001   17.816   34.926
H   51.141   16.002   38.061
H   49.901   15.698   39.247
H   49.826   18.324   39.564
H   53.029   16.645   38.702
H   53.562   16.997   40.377
H   54.065   17.969   38.996
H   52.678   19.365   41.289
H   50.976   19.601   40.812
H   51.668   21.382   39.299
H   52.951   20.166   38.805
H   53.764   21.386   41.308
H   53.249   22.636   40.171
H   54.897   20.854   38.669
H   56.760   20.332   40.083
H   55.657   20.757   41.403
H   56.749   21.908   40.825
H   56.404   22.753   38.661
H   55.368   23.612   39.718
H   53.873   24.056   37.848
H   54.098   22.428   37.152
H   56.357   24.075   36.719
H   54.911   24.998   36.570
H   55.052   22.258   35.147
H   56.017   24.772   33.675
H   56.399   23.040   33.414
H   57.293   23.920   34.622
H   53.869   24.970   34.311
H   53.068   23.807   35.273
H   52.472   22.413   33.442
H   53.988   22.465   32.769
H   53.235   25.069   32.426
H   51.615   24.253   32.576
H   52.454   22.646   30.654
H   54.770   24.011   30.930
H   54.085   25.023   29.695
H   54.380   23.262   29.422
H   50.975   25.017   30.608
H   50.870   23.482   29.661
H   51.765   24.982   29.129
