140
25
Mg   52.646   24.227   44.440
C   49.779   26.193   43.909
C   50.912   21.462   43.548
C   55.470   22.404   44.542
C   54.472   27.159   45.040
N   50.573   23.896   43.733
C   49.556   24.813   43.687
C   48.299   24.042   43.463
C   48.626   22.554   43.477
C   50.149   22.664   43.539
C   48.015   21.684   44.702
C   47.480   24.409   42.164
C   48.259   24.327   40.813
C   47.600   23.463   39.702
O   46.977   22.392   39.859
O   47.793   24.058   38.478
N   53.172   22.198   43.965
C   52.296   21.212   43.760
C   52.943   19.953   43.680
C   54.360   20.183   43.932
C   54.418   21.651   44.163
C   52.320   18.607   43.361
C   55.494   19.163   44.007
O   55.205   17.990   43.818
C   56.928   19.471   44.505
N   54.722   24.765   44.488
C   55.632   23.749   44.804
C   56.997   24.358   45.121
C   56.682   25.937   45.132
C   55.170   25.967   44.823
C   57.579   23.733   46.487
C   57.518   26.810   44.117
C   58.694   27.647   44.713
N   52.266   26.258   44.560
C   53.065   27.338   44.887
C   52.249   28.508   45.098
C   50.951   28.127   44.649
C   51.008   26.759   44.315
C   52.694   29.921   45.591
C   49.570   28.480   44.515
O   48.964   29.555   44.718
C   48.772   27.348   43.885
C   48.330   27.835   42.601
O   48.954   27.633   41.518
O   47.156   28.512   42.714
C   46.611   28.956   41.431
C   47.134   23.301   37.371
C   48.161   22.234   36.783
C   47.958   20.980   36.258
C   46.635   20.234   36.193
C   49.112   20.193   35.825
C   50.042   20.784   34.704
C   50.757   19.754   33.810
C   52.196   19.301   34.319
C   53.342   20.052   33.746
C   52.293   17.767   34.357
C   52.559   17.144   33.006
C   51.281   16.803   32.300
C   51.247   15.550   31.368
C   51.134   14.263   32.274
C   52.407   15.429   30.442
C   52.087   14.360   29.328
C   52.205   15.008   27.933
C   53.430   14.534   27.123
C   54.364   15.727   26.664
C   53.180   13.430   26.026
H   50.336   20.575   43.278
H   56.358   21.846   44.847
H   55.067   28.047   45.264
H   47.717   24.194   44.372
H   48.199   22.061   42.603
H   47.928   22.301   45.597
H   48.780   20.928   44.881
H   47.077   21.201   44.431
H   47.121   25.438   42.167
H   46.628   23.732   42.231
H   49.260   23.916   40.938
H   48.345   25.355   40.460
H   52.497   18.244   42.348
H   51.247   18.562   43.547
H   52.656   17.730   43.914
H   57.525   18.562   44.439
H   56.881   19.671   45.575
H   57.450   20.315   44.054
H   57.674   24.094   44.308
H   56.878   26.308   46.138
H   58.501   23.190   46.278
H   56.833   23.097   46.963
H   57.791   24.586   47.131
H   56.877   27.369   43.436
H   57.978   26.031   43.508
H   59.591   27.262   44.229
H   58.679   27.571   45.800
H   58.708   28.722   44.533
H   52.260   30.578   44.837
H   53.765   30.088   45.476
H   52.448   30.073   46.642
H   47.966   27.241   44.611
H   46.901   30.002   41.332
H   45.532   28.937   41.586
H   46.714   28.275   40.587
H   46.810   24.091   36.693
H   46.174   22.872   37.657
H   49.169   22.649   36.825
H   46.694   19.262   36.684
H   46.447   19.987   35.148
H   45.902   20.953   36.558
H   48.913   19.137   35.642
H   49.794   20.149   36.674
H   50.852   21.309   35.209
H   49.447   21.367   34.001
H   50.902   20.207   32.829
H   50.079   18.931   33.581
H   52.246   19.666   35.345
H   54.285   19.557   33.978
H   53.396   21.025   34.235
H   53.219   20.217   32.676
H   51.383   17.237   34.640
H   53.013   17.470   35.119
H   53.159   16.243   33.134
H   53.053   17.865   32.355
H   51.108   17.610   31.589
H   50.476   16.550   32.990
H   50.359   15.601   30.738
H   50.092   14.006   32.461
H   51.674   14.410   33.210
H   51.599   13.404   31.790
H   53.265   15.065   31.006
H   52.559   16.456   30.109
H   51.047   14.042   29.393
H   52.764   13.512   29.439
H   52.274   16.094   28.000
H   51.274   14.824   27.397
H   54.130   14.004   27.769
H   53.845   16.668   26.842
H   54.663   15.635   25.620
H   55.286   15.603   27.233
H   54.003   12.728   26.159
H   53.322   13.773   25.001
H   52.244   12.878   26.107
