140
23
Mg   46.624   45.688   44.150
C   43.295   44.469   43.778
C   47.687   42.373   43.834
C   49.710   46.871   43.903
C   45.357   48.874   44.009
N   45.605   43.684   43.692
C   44.256   43.433   43.681
C   43.970   41.888   43.616
C   45.288   41.314   44.048
C   46.272   42.505   43.837
C   45.375   40.764   45.516
C   43.320   41.366   42.240
C   43.391   42.329   40.995
C   43.040   41.829   39.552
O   42.045   41.207   39.285
O   43.887   42.334   38.545
N   48.438   44.746   43.795
C   48.630   43.411   43.757
C   50.046   43.195   43.557
C   50.722   44.478   43.663
C   49.606   45.434   43.793
C   50.557   41.787   43.274
C   52.243   44.717   43.532
O   53.026   43.740   43.589
C   52.824   46.067   43.292
N   47.388   47.631   43.658
C   48.695   47.808   43.997
C   49.047   49.295   44.355
C   47.655   49.976   44.105
C   46.747   48.725   43.929
C   49.548   49.494   45.826
C   47.595   50.793   42.743
C   48.632   51.902   42.538
N   44.713   46.566   43.965
C   44.356   47.850   43.985
C   42.890   47.978   43.834
C   42.478   46.676   43.798
C   43.592   45.820   43.907
C   41.993   49.276   43.572
C   41.298   45.891   43.754
O   40.102   46.117   43.710
C   41.795   44.402   43.719
C   41.277   43.663   44.884
O   40.892   42.483   44.862
O   41.219   44.466   46.009
C   40.483   43.850   47.214
C   43.330   42.052   37.174
C   44.308   42.651   36.127
C   45.372   42.123   35.458
C   45.965   40.763   35.678
C   46.281   43.040   34.594
C   46.266   42.828   33.087
C   45.666   44.071   32.447
C   45.724   44.261   30.868
C   46.267   45.608   30.427
C   44.433   43.717   30.160
C   44.901   43.286   28.745
C   44.041   43.976   27.585
C   44.876   44.748   26.546
C   44.143   46.058   26.131
C   45.191   43.975   25.258
C   46.626   43.304   25.456
C   47.615   43.458   24.287
C   47.975   44.992   24.140
C   47.963   45.416   22.684
C   49.348   45.295   24.691
H   48.022   41.348   44.004
H   50.696   47.337   43.959
H   44.963   49.888   44.106
H   43.233   41.647   44.381
H   45.597   40.468   43.433
H   45.508   39.683   45.479
H   44.500   41.144   46.044
H   46.312   41.086   45.971
H   42.301   41.021   42.414
H   43.997   40.554   41.975
H   44.373   42.803   40.989
H   42.828   43.243   41.184
H   51.278   41.548   44.056
H   51.109   41.628   42.347
H   49.841   40.966   43.305
H   52.919   46.544   44.268
H   52.130   46.571   42.619
H   53.761   45.976   42.743
H   49.749   49.717   43.636
H   47.311   50.572   44.950
H   48.702   49.374   46.502
H   50.193   50.365   45.946
H   50.162   48.647   46.133
H   46.642   51.227   42.438
H   47.870   50.076   41.970
H   49.356   51.721   41.743
H   49.263   52.146   43.392
H   48.045   52.806   42.380
H   41.511   49.316   42.595
H   42.625   50.163   43.620
H   41.207   49.331   44.325
H   41.430   43.812   42.878
H   39.483   44.273   47.122
H   40.793   44.330   48.142
H   40.382   42.771   47.331
H   42.312   42.413   37.026
H   43.340   40.964   37.110
H   44.012   43.670   35.877
H   47.007   40.934   35.948
H   46.071   40.338   34.680
H   45.469   40.158   36.437
H   47.314   42.969   34.932
H   46.119   44.082   34.870
H   45.788   41.886   32.817
H   47.295   42.791   32.729
H   46.113   44.956   32.898
H   44.632   44.068   32.791
H   46.481   43.556   30.524
H   45.400   46.078   29.964
H   47.028   45.536   29.651
H   46.685   46.191   31.248
H   43.711   44.533   30.198
H   43.970   42.809   30.545
H   44.780   42.203   28.739
H   45.922   43.480   28.416
H   43.354   44.664   28.078
H   43.456   43.240   27.035
H   45.816   45.006   27.035
H   43.899   46.151   25.072
H   44.916   46.811   26.286
H   43.208   46.281   26.645
H   45.211   44.617   24.377
H   44.474   43.163   25.135
H   46.540   42.224   25.579
H   47.144   43.509   26.393
H   47.252   43.274   23.276
H   48.550   42.959   24.543
H   47.241   45.613   24.654
H   48.339   46.435   22.585
H   46.987   45.401   22.200
H   48.569   44.667   22.174
H   49.277   46.245   25.221
H   50.066   45.411   23.879
H   49.686   44.583   25.444
