140
21
Mg   -5.827   24.512   27.300
C   -3.983   26.309   29.664
C   -6.855   22.398   29.847
C   -7.591   22.775   25.053
C   -4.666   26.583   24.802
N   -5.382   24.355   29.486
C   -4.716   25.260   30.213
C   -5.030   25.154   31.692
C   -5.712   23.733   31.839
C   -6.037   23.480   30.300
C   -4.868   22.620   32.478
C   -5.996   26.316   32.118
C   -5.540   26.928   33.482
C   -6.231   26.299   34.780
O   -7.136   26.865   35.377
O   -5.660   25.120   35.124
N   -6.986   22.823   27.442
C   -7.294   22.096   28.562
C   -8.186   21.027   28.206
C   -8.446   21.080   26.839
C   -7.703   22.282   26.425
C   -8.734   20.041   29.245
C   -9.344   20.214   25.956
O   -9.502   20.445   24.760
C   -10.019   19.084   26.624
N   -6.007   24.614   25.208
C   -6.915   23.878   24.562
C   -6.798   24.228   23.056
C   -5.876   25.456   23.008
C   -5.602   25.639   24.480
C   -6.289   23.168   22.009
C   -6.554   26.742   22.340
C   -5.756   27.382   21.163
N   -4.453   26.051   27.238
C   -4.116   26.781   26.120
C   -3.238   27.859   26.598
C   -3.090   27.704   27.907
C   -3.871   26.603   28.294
C   -2.612   28.885   25.704
C   -2.475   28.180   29.144
O   -1.767   29.136   29.198
C   -3.124   27.329   30.363
C   -1.876   26.884   31.114
O   -1.039   26.087   30.707
O   -1.893   27.542   32.349
C   -0.874   27.000   33.289
C   -6.028   24.638   36.467
C   -7.161   23.571   36.464
C   -7.477   22.800   37.517
C   -6.713   22.884   38.885
C   -8.448   21.638   37.312
C   -9.944   21.959   37.060
C   -10.927   21.197   38.008
C   -11.875   20.218   37.295
C   -13.195   20.925   36.983
C   -12.205   19.051   38.199
C   -11.180   17.908   37.917
C   -10.464   17.596   39.254
C   -8.953   17.215   38.950
C   -8.080   18.304   39.641
C   -8.522   15.860   39.519
C   -7.266   15.313   38.811
C   -5.931   15.499   39.551
C   -4.902   14.379   39.302
C   -4.268   13.817   40.625
C   -3.833   14.808   38.264
H   -7.233   21.865   30.722
H   -8.112   22.249   24.250
H   -4.330   27.354   24.105
H   -4.013   25.109   32.080
H   -6.645   23.751   32.403
H   -5.617   22.116   33.090
H   -4.104   22.987   33.163
H   -4.446   21.868   31.812
H   -6.979   25.857   32.225
H   -6.181   27.049   31.333
H   -5.762   27.992   33.399
H   -4.484   26.840   33.736
H   -9.822   19.995   29.197
H   -8.386   20.191   30.267
H   -8.337   19.055   29.002
H   -10.477   18.466   25.852
H   -10.766   19.492   27.305
H   -9.340   18.449   27.193
H   -7.827   24.502   22.823
H   -4.925   25.322   22.492
H   -7.035   22.708   21.361
H   -5.771   22.296   22.408
H   -5.536   23.665   21.396
H   -6.694   27.479   23.131
H   -7.616   26.631   22.120
H   -5.051   26.656   20.757
H   -5.333   28.347   21.443
H   -6.408   27.649   20.331
H   -1.926   28.418   24.997
H   -1.915   29.373   26.385
H   -3.430   29.496   25.321
H   -3.671   28.015   31.010
H   0.098   26.630   32.961
H   -1.311   26.017   33.470
H   -0.831   27.371   34.312
H   -6.178   25.475   37.148
H   -5.094   24.175   36.786
H   -7.616   23.359   35.497
H   -5.651   23.053   38.706
H   -6.866   21.965   39.451
H   -7.186   23.681   39.460
H   -8.260   21.058   38.216
H   -8.084   21.165   36.400
H   -10.168   21.828   36.001
H   -10.034   22.993   37.392
H   -11.607   21.814   38.595
H   -10.383   20.772   38.851
H   -11.514   19.931   36.307
H   -13.179   22.012   37.064
H   -13.897   20.518   37.710
H   -13.449   20.630   35.965
H   -13.226   18.713   38.020
H   -12.190   19.365   39.242
H   -10.556   18.165   37.061
H   -11.710   17.023   37.564
H   -11.021   16.840   39.807
H   -10.611   18.450   39.916
H   -8.669   17.326   37.903
H   -8.622   18.996   40.286
H   -7.654   18.981   38.901
H   -7.363   17.967   40.390
H   -9.380   15.193   39.445
H   -8.261   16.005   40.567
H   -7.212   15.689   37.789
H   -7.437   14.248   38.648
H   -6.035   15.712   40.615
H   -5.550   16.431   39.134
H   -5.426   13.529   38.864
H   -4.216   12.728   40.640
H   -4.860   14.089   41.498
H   -3.251   14.208   40.671
H   -3.291   13.916   37.950
H   -3.149   15.504   38.750
H   -4.330   15.349   37.458
