140
3
Mg   -8.850   18.498   43.272
C   -5.441   18.360   43.328
C   -8.675   21.860   42.450
C   -12.323   18.664   43.062
C   -9.097   15.102   43.733
N   -7.158   19.971   42.790
C   -5.855   19.671   42.976
C   -4.925   20.909   42.736
C   -6.083   22.110   42.763
C   -7.425   21.269   42.600
C   -6.138   22.900   44.093
C   -3.986   20.783   41.527
C   -4.454   20.004   40.261
C   -4.337   20.731   38.899
O   -4.455   21.910   38.723
O   -4.015   19.853   37.897
N   -10.333   20.032   42.731
C   -9.993   21.378   42.573
C   -11.233   22.163   42.402
C   -12.314   21.278   42.656
C   -11.697   19.965   42.872
C   -11.255   23.681   42.149
C   -13.785   21.656   42.845
O   -14.169   22.784   42.970
C   -14.838   20.692   43.116
N   -10.480   17.086   43.210
C   -11.801   17.417   43.222
C   -12.778   16.208   43.365
C   -11.721   15.001   43.413
C   -10.353   15.712   43.422
C   -13.741   16.185   44.526
C   -11.897   13.940   42.256
C   -11.003   13.992   40.960
N   -7.610   16.988   43.474
C   -7.798   15.726   43.777
C   -6.534   15.129   44.073
C   -5.557   16.139   43.950
C   -6.308   17.235   43.520
C   -6.319   13.677   44.403
C   -4.114   16.437   44.068
O   -3.156   15.749   44.293
C   -4.023   17.901   43.558
C   -3.389   18.615   44.737
O   -3.956   18.954   45.758
O   -2.097   18.981   44.317
C   -1.527   20.025   45.141
C   -4.223   20.380   36.521
C   -5.661   20.194   36.051
C   -6.189   19.171   35.403
C   -5.454   17.851   35.299
C   -7.675   19.064   35.082
C   -8.029   20.111   34.036
C   -9.067   19.546   32.944
C   -10.587   19.712   33.305
C   -11.238   18.320   33.326
C   -11.371   20.821   32.467
C   -10.781   22.215   32.867
C   -9.881   22.837   31.828
C   -10.322   24.281   31.414
C   -9.470   25.303   32.081
C   -10.410   24.631   29.852
C   -11.653   24.108   29.141
C   -11.456   22.713   28.409
C   -12.183   22.608   27.020
C   -12.142   21.034   26.634
C   -11.645   23.540   25.917
H   -8.516   22.931   42.592
H   -13.412   18.706   42.994
H   -9.109   14.032   43.949
H   -4.382   20.996   43.677
H   -5.852   22.762   41.920
H   -6.894   22.412   44.708
H   -6.353   23.947   43.878
H   -5.220   22.918   44.680
H   -3.051   20.381   41.918
H   -3.798   21.812   41.218
H   -5.509   20.003   40.534
H   -4.008   19.010   40.235
H   -11.622   23.992   41.171
H   -10.248   24.066   42.306
H   -11.792   24.207   42.938
H   -14.571   20.037   43.945
H   -14.858   20.139   42.177
H   -15.775   21.231   43.251
H   -13.450   16.103   42.513
H   -11.834   14.531   44.389
H   -14.723   16.440   44.129
H   -13.503   16.865   45.345
H   -13.981   15.183   44.881
H   -12.861   14.200   41.818
H   -11.966   12.937   42.678
H   -11.006   12.954   40.628
H   -9.977   14.349   41.045
H   -11.602   14.431   40.162
H   -5.586   13.643   45.209
H   -5.925   13.211   43.500
H   -7.212   13.142   44.725
H   -3.425   17.843   42.648
H   -0.447   19.873   45.152
H   -1.838   20.130   46.181
H   -1.658   20.989   44.650
H   -3.552   19.809   35.879
H   -3.900   21.411   36.377
H   -6.198   21.138   35.960
H   -4.442   17.809   35.703
H   -5.368   17.459   34.286
H   -5.988   17.110   35.893
H   -8.243   19.366   35.962
H   -7.816   18.051   34.707
H   -7.141   20.580   33.612
H   -8.512   20.926   34.575
H   -8.699   18.563   32.650
H   -8.876   20.211   32.102
H   -10.663   20.012   34.350
H   -12.301   18.413   33.103
H   -11.014   17.837   34.277
H   -10.780   17.780   32.497
H   -12.437   20.692   32.650
H   -11.271   20.561   31.413
H   -10.198   22.083   33.779
H   -11.617   22.787   33.269
H   -9.866   22.252   30.908
H   -8.871   22.870   32.236
H   -11.194   24.513   32.025
H   -9.087   25.050   33.070
H   -9.987   26.261   32.140
H   -8.596   25.493   31.458
H   -9.465   24.271   29.446
H   -10.437   25.720   29.805
H   -12.057   24.867   28.471
H   -12.383   23.916   29.927
H   -12.035   21.962   28.946
H   -10.418   22.383   28.368
H   -13.205   22.920   27.237
H   -11.428   20.397   27.155
H   -11.954   20.891   25.570
H   -13.185   20.744   26.763
H   -11.325   22.997   25.028
H   -10.820   24.114   26.339
H   -12.452   24.236   25.688
