140
3
Mg   -5.484   24.582   27.338
C   -3.632   26.266   29.758
C   -6.525   22.239   29.686
C   -6.982   22.757   24.841
C   -4.323   26.772   24.911
N   -5.146   24.390   29.481
C   -4.452   25.230   30.318
C   -4.657   24.906   31.767
C   -5.200   23.464   31.638
C   -5.668   23.325   30.122
C   -4.291   22.329   32.287
C   -5.578   25.762   32.646
C   -5.107   25.816   34.121
C   -5.497   24.797   35.214
O   -5.110   23.628   35.243
O   -6.397   25.361   36.106
N   -6.585   22.731   27.303
C   -6.940   21.891   28.360
C   -7.749   20.799   27.852
C   -7.891   20.915   26.497
C   -7.165   22.222   26.182
C   -8.322   19.783   28.748
C   -8.603   20.080   25.514
O   -8.714   20.455   24.393
C   -9.019   18.695   25.930
N   -5.585   24.731   25.193
C   -6.351   23.967   24.436
C   -6.286   24.329   22.946
C   -5.866   25.797   23.123
C   -5.217   25.796   24.505
C   -5.445   23.519   22.031
C   -6.925   26.819   22.731
C   -7.010   27.176   21.273
N   -4.147   26.173   27.251
C   -3.814   27.003   26.201
C   -2.832   28.036   26.701
C   -2.770   27.760   28.063
C   -3.562   26.654   28.363
C   -1.937   28.888   25.822
C   -2.067   28.164   29.264
O   -1.178   29.007   29.435
C   -2.662   27.233   30.377
C   -1.530   26.597   31.202
O   -0.759   25.771   30.948
O   -1.759   27.038   32.469
C   -0.920   26.441   33.544
C   -6.614   24.490   37.308
C   -7.585   23.411   36.971
C   -8.406   22.823   37.871
C   -8.150   23.053   39.375
C   -9.585   21.900   37.534
C   -10.921   22.418   37.998
C   -11.620   21.506   39.047
C   -12.454   20.389   38.384
C   -13.934   20.774   38.239
C   -12.143   18.939   38.915
C   -11.178   18.196   37.948
C   -10.385   17.069   38.679
C   -8.934   17.300   38.926
C   -8.672   17.816   40.336
C   -8.143   15.995   38.795
C   -6.675   16.114   38.572
C   -5.707   15.852   39.743
C   -4.999   14.531   39.569
C   -4.403   14.018   40.950
C   -3.909   14.563   38.456
H   -6.827   21.547   30.475
H   -7.520   22.247   24.039
H   -4.176   27.646   24.272
H   -3.652   24.806   32.177
H   -6.155   23.347   32.151
H   -4.056   21.636   31.480
H   -4.948   21.778   32.959
H   -3.346   22.619   32.746
H   -6.615   25.430   32.601
H   -5.638   26.767   32.230
H   -5.141   26.869   34.402
H   -4.023   25.731   34.042
H   -8.122   18.780   28.370
H   -9.400   19.907   28.844
H   -7.923   19.879   29.758
H   -8.120   18.171   26.255
H   -9.518   18.098   25.167
H   -9.800   18.802   26.683
H   -7.320   24.227   22.617
H   -5.001   26.077   22.521
H   -5.047   22.584   22.425
H   -4.551   24.071   21.741
H   -6.070   23.312   21.161
H   -6.585   27.678   23.309
H   -7.881   26.514   23.156
H   -7.972   27.245   20.765
H   -6.585   26.437   20.594
H   -6.522   28.136   21.105
H   -1.847   29.962   25.983
H   -2.443   28.856   24.858
H   -0.942   28.445   25.781
H   -3.128   27.945   31.058
H   0.146   26.481   33.323
H   -1.153   25.408   33.802
H   -1.211   27.060   34.393
H   -7.060   25.270   37.925
H   -5.717   24.186   37.847
H   -7.788   23.325   35.904
H   -7.080   23.141   39.567
H   -8.563   22.163   39.848
H   -8.615   23.989   39.685
H   -9.319   21.038   38.147
H   -9.536   21.767   36.453
H   -11.669   22.492   37.208
H   -10.791   23.451   38.321
H   -12.326   22.094   39.634
H   -10.818   21.251   39.740
H   -12.114   20.291   37.353
H   -14.657   20.163   38.778
H   -14.092   20.553   37.183
H   -14.183   21.814   38.447
H   -13.024   18.298   38.952
H   -11.608   19.049   39.858
H   -10.471   18.945   37.590
H   -11.752   17.851   37.088
H   -10.517   16.247   37.977
H   -10.956   16.871   39.586
H   -8.477   17.972   38.200
H   -8.135   17.161   41.022
H   -9.573   18.156   40.845
H   -8.087   18.730   40.233
H   -8.533   15.340   38.016
H   -8.184   15.543   39.786
H   -6.331   17.059   38.152
H   -6.383   15.346   37.856
H   -6.208   15.843   40.710
H   -4.953   16.618   39.922
H   -5.722   13.777   39.256
H   -3.343   13.778   40.876
H   -4.884   13.066   41.172
H   -4.693   14.595   41.828
H   -3.922   15.480   37.868
H   -4.066   13.757   37.740
H   -2.890   14.358   38.787
