140
30
Mg   -0.252   43.548   25.254
C   1.790   43.065   27.977
C   -2.954   42.828   27.408
C   -2.401   43.648   22.624
C   2.422   43.589   23.184
N   -0.550   43.008   27.391
C   0.478   42.971   28.309
C   -0.054   42.806   29.730
C   -1.523   42.296   29.415
C   -1.685   42.656   27.949
C   -1.773   40.700   29.546
C   -0.139   44.143   30.483
C   -0.485   44.172   31.994
C   0.068   43.052   32.794
O   1.205   42.860   33.091
O   -1.003   42.298   33.207
N   -2.400   43.546   25.020
C   -3.290   43.354   26.101
C   -4.551   43.706   25.588
C   -4.473   43.935   24.170
C   -3.062   43.762   23.866
C   -5.768   43.724   26.542
C   -5.609   44.185   23.129
O   -5.351   44.251   21.961
C   -6.956   44.374   23.638
N   -0.028   43.384   23.265
C   -1.036   43.426   22.383
C   -0.535   43.125   20.983
C   0.917   43.571   21.102
C   1.154   43.471   22.575
C   -0.762   41.588   20.469
C   1.284   44.948   20.353
C   1.158   46.308   21.034
N   1.754   43.370   25.484
C   2.714   43.531   24.563
C   4.003   43.409   25.180
C   3.724   43.158   26.519
C   2.324   43.166   26.646
C   5.395   43.635   24.513
C   4.228   42.893   27.801
O   5.374   42.765   28.132
C   3.056   42.967   28.802
C   3.252   41.836   29.648
O   3.016   40.653   29.393
O   3.848   42.226   30.829
C   4.115   41.156   31.779
C   -0.659   41.275   34.245
C   -1.891   41.020   35.095
C   -2.526   41.829   35.962
C   -1.926   43.115   36.634
C   -3.810   41.426   36.523
C   -4.931   42.464   36.214
C   -6.222   41.775   35.650
C   -7.454   41.916   36.541
C   -7.734   43.454   36.823
C   -8.806   41.433   35.877
C   -9.157   40.012   36.423
C   -9.781   40.040   37.838
C   -11.257   39.554   37.860
C   -12.279   40.508   38.692
C   -11.493   38.137   38.355
C   -12.295   37.196   37.414
C   -13.101   36.137   38.265
C   -14.639   36.531   38.287
C   -15.264   36.456   39.705
C   -15.487   35.617   37.358
H   -3.784   42.830   28.118
H   -3.185   43.649   21.864
H   3.208   43.490   22.432
H   0.663   42.138   30.208
H   -2.304   42.719   30.047
H   -0.848   40.287   29.949
H   -1.852   40.264   28.550
H   -2.637   40.489   30.176
H   -0.990   44.706   30.099
H   0.742   44.769   30.342
H   -1.564   44.319   32.038
H   -0.077   45.059   32.477
H   -5.520   43.492   27.578
H   -6.588   43.069   26.247
H   -6.227   44.712   26.577
H   -7.174   45.290   24.187
H   -7.287   43.551   24.271
H   -7.647   44.397   22.795
H   -1.122   43.738   20.300
H   1.574   42.841   20.630
H   -0.852   40.827   21.245
H   0.048   41.385   19.769
H   -1.696   41.512   19.912
H   0.492   45.101   19.620
H   2.179   44.752   19.762
H   2.085   46.880   21.021
H   0.893   46.157   22.081
H   0.366   46.902   20.578
H   5.598   42.962   23.680
H   6.254   43.589   25.183
H   5.338   44.632   24.076
H   3.081   43.878   29.399
H   4.853   41.562   32.471
H   4.627   40.324   31.298
H   3.230   40.796   32.304
H   0.166   41.549   34.903
H   -0.310   40.407   33.686
H   -2.169   39.977   34.944
H   -0.972   43.342   36.158
H   -1.717   42.811   37.660
H   -2.563   43.983   36.800
H   -3.633   41.455   37.598
H   -3.969   40.421   36.133
H   -4.637   43.288   35.564
H   -5.093   42.812   37.234
H   -6.347   40.707   35.471
H   -6.337   42.301   34.702
H   -7.216   41.290   37.400
H   -6.844   44.080   36.747
H   -8.150   43.652   37.811
H   -8.347   43.771   35.979
H   -8.744   41.261   34.803
H   -9.644   41.945   36.350
H   -8.316   39.322   36.477
H   -9.803   39.536   35.685
H   -9.618   40.968   38.386
H   -9.234   39.372   38.504
H   -11.727   39.565   36.876
H   -11.711   41.363   39.057
H   -12.878   40.057   39.483
H   -13.029   40.860   37.984
H   -12.149   38.143   39.226
H   -10.598   37.578   38.628
H   -11.601   36.519   36.917
H   -12.971   37.585   36.652
H   -12.811   35.841   39.274
H   -13.092   35.291   37.578
H   -14.752   37.536   37.880
H   -16.207   35.914   39.784
H   -15.477   37.489   39.982
H   -14.504   36.079   40.389
H   -15.090   34.618   37.178
H   -15.605   36.131   36.404
H   -16.542   35.565   37.628
