140
28
Mg   25.708   50.222   26.143
C   23.728   51.567   28.688
C   28.060   49.489   28.527
C   27.861   49.583   23.662
C   23.461   51.664   23.752
N   25.920   50.480   28.317
C   24.944   51.055   29.138
C   25.345   50.910   30.574
C   26.928   50.672   30.461
C   27.002   50.184   29.027
C   27.944   51.684   30.931
C   24.547   49.867   31.391
C   23.752   50.383   32.565
C   24.416   51.075   33.751
O   25.062   52.071   33.639
O   24.123   50.383   34.937
N   27.616   49.401   26.113
C   28.445   49.155   27.189
C   29.554   48.472   26.716
C   29.549   48.370   25.345
C   28.280   49.149   24.935
C   30.567   47.871   27.668
C   30.522   47.751   24.420
O   30.283   47.856   23.206
C   31.766   46.979   24.845
N   25.682   50.642   24.102
C   26.754   50.245   23.315
C   26.425   50.629   21.868
C   24.958   50.904   21.824
C   24.655   51.085   23.283
C   27.436   51.765   21.331
C   24.038   49.800   21.200
C   23.898   48.467   21.997
N   23.917   51.309   26.150
C   23.081   51.799   25.112
C   21.967   52.524   25.678
C   22.204   52.467   27.039
C   23.398   51.696   27.338
C   20.890   53.139   24.916
C   21.647   52.898   28.343
O   20.663   53.658   28.572
C   22.656   52.298   29.488
C   23.159   53.393   30.356
O   24.161   54.003   30.142
O   22.263   53.637   31.353
C   22.584   54.806   32.265
C   24.911   51.045   36.040
C   24.794   50.180   37.255
C   25.448   50.154   38.471
C   26.347   51.369   38.819
C   25.102   49.165   39.551
C   26.138   48.088   39.915
C   25.346   46.834   40.467
C   26.188   45.898   41.328
C   26.888   44.866   40.465
C   25.365   45.239   42.461
C   26.029   45.600   43.871
C   25.129   46.615   44.692
C   25.971   47.894   45.061
C   25.697   48.427   46.478
C   25.930   48.914   43.982
C   27.405   49.456   43.754
C   27.393   50.887   43.244
C   27.848   51.986   44.309
C   27.008   53.206   44.269
C   29.318   52.282   44.130
H   28.704   49.269   29.381
H   28.503   49.396   22.799
H   22.777   51.970   22.957
H   25.289   51.927   30.964
H   27.192   49.823   31.091
H   28.821   51.806   30.295
H   28.223   51.452   31.959
H   27.452   52.650   30.818
H   25.250   49.134   31.786
H   23.975   49.181   30.767
H   23.009   49.645   32.868
H   23.084   51.127   32.132
H   31.577   48.268   27.558
H   30.521   46.797   27.485
H   30.347   48.134   28.702
H   32.431   47.752   25.229
H   32.180   46.404   24.017
H   31.530   46.223   25.595
H   26.577   49.747   21.246
H   24.834   51.828   21.260
H   27.909   52.330   22.133
H   26.857   52.368   20.631
H   28.257   51.239   20.843
H   24.221   49.625   20.140
H   23.071   50.271   21.380
H   23.738   47.710   21.228
H   22.922   48.434   22.482
H   24.777   48.224   22.593
H   20.301   53.751   25.600
H   20.346   52.385   24.348
H   21.290   53.835   24.178
H   22.208   51.576   30.170
H   23.181   54.307   33.028
H   21.673   55.170   32.740
H   23.158   55.575   31.748
H   24.612   52.080   36.204
H   25.975   51.038   35.806
H   24.164   49.314   37.055
H   26.730   51.963   37.989
H   27.138   51.094   39.517
H   25.682   52.065   39.329
H   24.123   48.750   39.311
H   24.844   49.792   40.405
H   26.963   48.473   40.516
H   26.604   47.626   39.045
H   24.966   46.300   39.597
H   24.449   47.183   40.979
H   26.895   46.537   41.856
H   27.283   45.402   39.602
H   26.324   43.999   40.121
H   27.716   44.455   41.042
H   25.373   44.150   42.430
H   24.328   45.575   42.488
H   27.012   46.053   43.736
H   25.980   44.673   44.441
H   24.668   46.206   45.591
H   24.255   46.892   44.102
H   27.005   47.551   45.094
H   25.324   49.451   46.470
H   26.598   48.499   47.087
H   24.985   47.755   46.957
H   25.082   49.584   44.124
H   25.653   48.330   43.104
H   27.966   48.722   43.176
H   27.872   49.421   44.738
H   26.382   51.075   42.884
H   28.022   50.929   42.355
H   27.679   51.449   45.241
H   26.769   53.363   43.217
H   27.583   54.065   44.617
H   26.258   53.034   45.040
H   29.495   53.261   43.684
H   29.806   51.546   43.490
H   29.859   52.227   45.074
