140
32
Mg   -1.428   17.487   26.264
C   -1.813   15.045   29.022
C   -2.378   19.833   28.512
C   -1.687   19.411   23.638
C   -1.227   14.633   24.179
N   -2.081   17.382   28.548
C   -2.085   16.358   29.491
C   -2.296   16.950   30.936
C   -2.534   18.464   30.657
C   -2.377   18.584   29.144
C   -3.967   18.973   31.106
C   -1.200   16.607   32.005
C   -1.031   17.526   33.210
C   -0.987   16.803   34.607
O   -1.129   15.587   34.868
O   -0.613   17.776   35.584
N   -1.815   19.415   26.099
C   -2.134   20.233   27.118
C   -2.064   21.637   26.617
C   -1.930   21.534   25.194
C   -1.756   20.064   24.941
C   -2.315   22.887   27.473
C   -2.008   22.610   24.180
O   -1.993   22.350   22.958
C   -2.141   24.104   24.587
N   -1.651   17.070   24.175
C   -1.698   18.091   23.272
C   -1.497   17.677   21.814
C   -1.038   16.177   22.045
C   -1.350   15.897   23.579
C   -2.822   17.874   21.036
C   0.536   15.892   21.707
C   1.496   15.741   22.903
N   -1.489   15.302   26.502
C   -1.250   14.344   25.536
C   -1.183   13.090   26.153
C   -1.395   13.299   27.515
C   -1.605   14.670   27.649
C   -0.857   11.811   25.430
C   -1.552   12.625   28.782
O   -1.502   11.418   29.112
C   -1.831   13.691   29.794
C   -0.848   13.501   30.891
O   0.280   13.942   30.929
O   -1.360   12.727   31.876
C   -0.552   12.421   33.021
C   -0.271   17.121   36.909
C   -0.290   18.174   38.097
C   -0.542   17.980   39.376
C   -0.589   16.554   39.927
C   -0.680   19.093   40.389
C   0.649   19.401   41.163
C   1.500   20.604   40.480
C   1.406   22.002   41.292
C   0.726   23.053   40.467
C   2.844   22.489   41.606
C   2.863   23.135   42.994
C   3.611   22.344   44.094
C   3.243   22.892   45.495
C   4.379   22.697   46.473
C   1.995   22.118   46.169
C   0.887   23.042   46.662
C   -0.264   23.208   45.663
C   -1.293   22.032   45.508
C   -1.610   21.666   44.076
C   -2.542   22.373   46.329
H   -2.472   20.615   29.268
H   -1.712   20.033   22.742
H   -1.004   13.849   23.452
H   -3.208   16.432   31.234
H   -1.825   19.182   31.070
H   -3.824   19.833   31.760
H   -4.520   18.201   31.640
H   -4.593   19.320   30.284
H   -0.218   16.573   31.533
H   -1.354   15.633   32.470
H   -1.863   18.220   33.327
H   -0.075   18.046   33.151
H   -2.539   22.499   28.467
H   -3.193   23.410   27.095
H   -1.402   23.483   27.462
H   -1.448   24.370   25.386
H   -3.149   24.302   24.952
H   -1.989   24.838   23.797
H   -0.735   18.280   21.319
H   -1.690   15.495   21.500
H   -2.573   18.665   20.329
H   -3.714   18.210   21.565
H   -3.004   16.956   20.476
H   0.857   16.514   20.871
H   0.563   14.879   21.305
H   1.150   16.187   23.835
H   2.449   16.128   22.541
H   1.659   14.677   23.073
H   -0.307   12.016   24.511
H   -1.624   11.037   25.407
H   -0.106   11.394   26.101
H   -2.812   13.612   30.261
H   0.340   11.909   32.659
H   -0.992   11.693   33.703
H   -0.302   13.306   33.605
H   0.702   16.663   36.730
H   -0.901   16.262   37.142
H   -0.310   19.228   37.821
H   0.180   16.224   40.625
H   -0.581   15.845   39.098
H   -1.511   16.245   40.419
H   -1.420   18.732   41.103
H   -1.234   19.966   40.043
H   1.209   18.467   41.225
H   0.458   19.689   42.197
H   1.061   20.795   39.500
H   2.511   20.271   40.244
H   0.853   21.863   42.221
H   0.770   22.894   39.390
H   1.015   24.071   40.727
H   -0.347   23.067   40.660
H   3.256   23.204   40.893
H   3.554   21.662   41.622
H   1.898   23.547   43.289
H   3.379   24.080   42.822
H   4.670   22.324   43.835
H   3.305   21.298   44.057
H   3.041   23.956   45.370
H   5.290   22.673   45.874
H   4.313   21.782   47.062
H   4.620   23.441   47.233
H   2.242   21.413   46.962
H   1.639   21.545   45.313
H   1.260   24.039   46.898
H   0.539   22.690   47.633
H   0.091   23.465   44.665
H   -0.715   24.127   46.038
H   -0.875   21.162   46.014
H   -1.117   22.373   43.408
H   -2.664   21.670   43.800
H   -1.196   20.677   43.874
H   -2.996   23.231   45.833
H   -2.309   22.499   47.387
H   -3.340   21.659   46.128
