140
23
Mg   9.043   47.843   24.855
C   6.902   47.702   27.762
C   11.388   49.116   26.887
C   11.010   47.801   22.318
C   6.202   47.722   22.907
N   9.159   48.368   27.054
C   8.200   48.186   28.054
C   8.744   48.831   29.371
C   9.901   49.672   28.869
C   10.222   49.115   27.529
C   9.578   51.166   28.769
C   9.066   47.791   30.462
C   9.179   48.442   31.881
C   8.351   47.749   33.061
O   7.150   47.436   33.047
O   9.103   47.604   34.179
N   10.954   48.293   24.656
C   11.817   48.695   25.649
C   13.170   48.666   25.160
C   13.052   48.143   23.843
C   11.629   48.107   23.557
C   14.436   49.043   25.967
C   14.144   47.659   22.821
O   13.915   47.156   21.760
C   15.535   47.740   23.209
N   8.571   47.977   22.801
C   9.630   47.682   21.998
C   9.130   47.560   20.513
C   7.615   47.933   20.703
C   7.395   47.763   22.196
C   9.960   48.376   19.422
C   6.771   47.064   19.682
C   6.447   47.769   18.336
N   6.989   47.730   25.135
C   5.995   47.650   24.279
C   4.720   47.344   24.958
C   5.037   47.275   26.324
C   6.445   47.572   26.417
C   3.352   47.417   24.306
C   4.410   47.128   27.657
O   3.292   46.893   28.089
C   5.671   47.545   28.599
C   5.833   46.445   29.555
O   6.331   45.390   29.351
O   5.114   46.786   30.657
C   4.759   45.739   31.599
C   8.461   46.799   35.239
C   9.334   46.895   36.476
C   9.157   46.169   37.614
C   7.901   45.376   37.886
C   10.245   46.050   38.747
C   9.966   46.757   40.022
C   11.332   47.162   40.719
C   11.534   46.409   41.998
C   11.315   47.275   43.206
C   12.950   45.726   42.068
C   12.808   44.206   41.954
C   13.197   43.420   43.245
C   14.740   43.335   43.460
C   15.098   43.730   44.952
C   15.207   41.883   43.194
C   15.596   41.727   41.746
C   15.885   40.175   41.584
C   16.028   39.850   40.086
C   15.701   38.415   39.672
C   17.414   40.207   39.493
H   12.208   49.607   27.416
H   11.700   47.717   21.476
H   5.368   47.803   22.206
H   7.951   49.505   29.694
H   10.771   49.610   29.524
H   9.676   51.524   27.744
H   10.178   51.719   29.492
H   8.599   51.467   29.143
H   9.999   47.304   30.180
H   8.339   46.984   30.557
H   9.059   49.524   31.832
H   10.239   48.312   32.101
H   14.123   49.448   26.929
H   14.978   49.865   25.498
H   15.163   48.236   26.053
H   15.837   46.841   23.747
H   15.841   48.667   23.695
H   16.167   47.709   22.322
H   9.263   46.489   20.356
H   7.522   49.005   20.529
H   10.658   49.016   19.963
H   9.277   48.942   18.788
H   10.603   47.778   18.776
H   5.808   46.813   20.128
H   7.155   46.081   19.412
H   5.370   47.939   18.330
H   6.609   47.084   17.504
H   7.019   48.695   18.294
H   2.571   47.015   24.951
H   3.350   46.899   23.347
H   3.105   48.471   24.175
H   5.466   48.454   29.163
H   5.638   45.423   32.160
H   4.236   44.880   31.178
H   4.052   46.172   32.307
H   8.361   45.792   34.835
H   7.565   47.391   35.423
H   10.265   47.456   36.399
H   7.158   45.498   37.098
H   7.463   45.678   38.837
H   8.257   44.356   37.736
H   11.256   46.343   38.465
H   10.146   44.975   38.903
H   9.380   46.071   40.633
H   9.396   47.676   39.888
H   11.095   48.205   40.930
H   12.208   47.218   40.073
H   10.769   45.634   42.057
H   11.220   48.324   42.928
H   12.099   47.169   43.957
H   10.371   46.998   43.674
H   13.414   45.997   43.016
H   13.603   46.132   41.296
H   13.625   43.933   41.288
H   11.935   43.854   41.404
H   12.740   42.452   43.039
H   12.696   43.784   44.143
H   15.285   44.060   42.855
H   16.031   44.264   45.132
H   15.337   42.872   45.582
H   14.409   44.280   45.593
H   14.463   41.171   43.552
H   16.120   41.649   43.743
H   16.579   42.189   41.655
H   14.851   42.153   41.074
H   15.100   39.564   42.029
H   16.751   39.868   42.171
H   15.405   40.570   39.557
H   15.751   38.276   38.592
H   14.722   38.212   40.104
H   16.371   37.804   40.277
H   18.059   40.759   40.177
H   17.185   40.846   38.640
H   17.948   39.352   39.078
