140
22
Mg   17.628   -1.641   27.861
C   16.739   0.330   30.620
C   19.361   -3.689   30.053
C   18.955   -3.290   25.242
C   16.269   0.666   25.663
N   18.180   -1.528   30.132
C   17.581   -0.705   31.057
C   18.053   -1.006   32.510
C   18.845   -2.392   32.251
C   18.815   -2.559   30.699
C   20.319   -2.341   32.794
C   16.779   -1.160   33.472
C   16.765   -0.510   34.895
C   18.059   -0.147   35.593
O   18.744   0.815   35.345
O   18.403   -1.169   36.471
N   18.760   -3.378   27.729
C   19.380   -4.076   28.672
C   20.037   -5.270   28.170
C   19.912   -5.190   26.750
C   19.238   -3.933   26.503
C   20.726   -6.315   29.131
C   20.447   -6.122   25.674
O   20.398   -5.869   24.496
C   21.164   -7.286   26.077
N   17.648   -1.288   25.759
C   18.196   -2.118   24.853
C   18.221   -1.547   23.449
C   17.243   -0.331   23.581
C   17.019   -0.279   25.109
C   19.554   -1.332   22.824
C   15.966   -0.209   22.624
C   16.020   0.909   21.585
N   16.730   0.054   28.006
C   16.084   0.895   27.030
C   15.273   1.921   27.613
C   15.558   1.799   29.052
C   16.437   0.651   29.207
C   14.451   2.854   26.862
C   15.348   2.358   30.344
O   14.837   3.462   30.619
C   16.027   1.428   31.421
C   16.858   2.258   32.285
O   17.991   2.751   32.069
O   16.141   2.589   33.444
C   16.790   3.725   34.247
C   19.582   -1.005   37.311
C   19.866   -2.368   37.917
C   20.785   -2.594   38.900
C   21.863   -1.640   39.388
C   20.890   -4.039   39.388
C   21.755   -4.864   38.414
C   22.463   -5.893   39.374
C   22.001   -7.392   39.398
C   20.766   -7.771   40.285
C   23.108   -8.389   39.516
C   24.026   -8.233   40.754
C   24.002   -9.353   41.845
C   25.113   -10.443   41.537
C   24.568   -11.907   41.177
C   26.286   -10.542   42.477
C   27.644   -10.050   41.908
C   28.613   -10.099   43.018
C   29.679   -11.261   42.896
C   30.694   -10.903   41.924
C   30.165   -11.664   44.348
H   19.863   -4.285   30.818
H   19.516   -3.655   24.379
H   15.662   1.220   24.944
H   18.786   -0.297   32.894
H   18.390   -3.190   32.837
H   21.067   -2.461   32.011
H   20.514   -3.066   33.584
H   20.582   -1.440   33.348
H   16.571   -2.223   33.594
H   15.967   -0.746   32.874
H   16.396   -1.385   35.430
H   16.125   0.367   34.999
H   21.789   -6.287   28.889
H   20.294   -7.311   29.040
H   20.693   -6.105   30.200
H   22.037   -7.127   26.710
H   21.428   -7.750   25.126
H   20.497   -7.946   26.631
H   17.827   -2.362   22.841
H   17.859   0.551   23.407
H   19.753   -0.296   22.551
H   19.758   -2.059   22.038
H   20.349   -1.607   23.518
H   15.076   -0.114   23.247
H   15.975   -1.106   22.004
H   16.960   1.399   21.334
H   15.310   1.639   21.974
H   15.542   0.563   20.668
H   13.957   2.345   26.033
H   15.094   3.581   26.366
H   13.780   3.425   27.504
H   15.234   0.907   31.958
H   17.749   3.318   34.566
H   16.187   3.862   35.145
H   16.893   4.665   33.704
H   19.369   -0.354   38.159
H   20.316   -0.508   36.676
H   19.196   -3.137   37.533
H   22.011   -0.796   38.714
H   22.847   -2.108   39.386
H   21.600   -1.258   40.375
H   19.906   -4.507   39.409
H   21.308   -3.956   40.391
H   22.449   -4.282   37.808
H   21.087   -5.411   37.749
H   22.409   -5.672   40.440
H   23.526   -5.993   39.154
H   21.570   -7.472   38.401
H   20.725   -8.751   40.761
H   19.778   -7.577   39.867
H   20.833   -7.116   41.153
H   23.827   -8.138   38.736
H   22.725   -9.390   39.314
H   23.787   -7.274   41.214
H   25.038   -8.116   40.367
H   23.043   -9.846   42.007
H   24.305   -8.751   42.702
H   25.574   -10.272   40.564
H   24.776   -12.647   41.949
H   24.965   -12.071   40.175
H   23.507   -12.077   40.989
H   26.402   -11.588   42.763
H   26.116   -9.903   43.344
H   27.522   -9.121   41.352
H   27.837   -10.827   41.168
H   28.112   -10.251   43.975
H   29.243   -9.212   43.073
H   29.211   -12.167   42.512
H   31.606   -11.360   42.308
H   30.789   -9.832   41.748
H   30.417   -11.445   41.020
H   29.850   -12.702   44.463
H   29.797   -11.096   45.202
H   31.247   -11.540   44.380
