140
14
Mg   44.188   3.601   47.594
C   41.565   6.145   47.262
C   41.629   1.306   47.608
C   46.477   1.290   47.366
C   46.486   6.027   46.885
N   41.857   3.728   47.367
C   41.063   4.828   47.187
C   39.649   4.391   46.901
C   39.603   2.970   47.535
C   41.081   2.583   47.533
C   38.969   2.929   48.937
C   39.339   4.394   45.409
C   37.967   5.031   44.872
C   38.063   6.074   43.781
O   38.054   7.262   43.981
O   38.082   5.467   42.525
N   44.065   1.603   47.640
C   42.955   0.773   47.634
C   43.300   -0.674   47.828
C   44.737   -0.658   47.709
C   45.173   0.791   47.579
C   42.342   -1.721   48.050
C   45.546   -1.961   47.786
O   44.970   -3.022   47.853
C   47.023   -2.106   47.709
N   46.094   3.658   46.990
C   46.924   2.642   47.246
C   48.357   3.019   47.296
C   48.282   4.347   46.533
C   46.881   4.726   46.826
C   48.986   3.050   48.768
C   48.469   4.325   44.985
C   49.920   4.556   44.488
N   44.163   5.701   47.275
C   45.215   6.554   47.117
C   44.664   7.974   47.027
C   43.242   7.798   47.241
C   42.999   6.472   47.284
C   45.478   9.159   46.780
C   42.045   8.558   47.273
O   41.948   9.763   47.162
C   40.930   7.488   47.275
C   40.094   7.743   48.460
O   40.563   8.040   49.581
O   38.765   7.484   48.175
C   37.927   7.934   49.312
C   38.232   6.471   41.457
C   39.444   6.100   40.618
C   39.772   6.599   39.386
C   39.158   7.903   38.903
C   41.160   6.188   38.715
C   41.321   4.679   38.297
C   42.682   4.067   38.910
C   43.552   3.573   37.713
C   44.627   2.395   38.061
C   44.311   4.809   37.072
C   44.237   4.899   35.504
C   45.604   4.764   34.738
C   45.474   4.068   33.408
C   46.954   3.621   32.940
C   44.871   5.055   32.294
C   43.640   4.552   31.518
C   43.224   5.468   30.453
C   43.501   4.984   29.016
C   42.174   4.682   28.337
C   44.544   5.833   28.205
H   40.829   0.563   47.609
H   47.304   0.619   47.605
H   47.231   6.820   46.796
H   38.942   5.059   47.393
H   38.865   2.393   46.977
H   38.406   3.857   49.036
H   39.782   2.920   49.664
H   38.256   2.153   49.216
H   39.451   3.373   45.044
H   40.126   4.962   44.913
H   37.387   5.427   45.706
H   37.336   4.229   44.489
H   42.140   -2.097   47.047
H   41.358   -1.481   48.451
H   42.629   -2.552   48.695
H   47.518   -1.404   48.380
H   47.317   -1.913   46.677
H   47.365   -3.131   47.854
H   48.852   2.297   46.648
H   48.835   5.174   46.976
H   49.998   2.646   48.755
H   48.404   2.627   49.587
H   49.202   4.095   48.992
H   47.715   4.867   44.413
H   48.225   3.288   44.753
H   50.369   3.629   44.130
H   50.620   5.028   45.177
H   49.813   5.278   43.679
H   46.172   9.011   45.953
H   46.042   9.416   47.677
H   44.871   9.990   46.423
H   40.338   7.683   46.381
H   38.373   7.487   50.200
H   36.942   7.533   49.069
H   37.888   9.016   49.438
H   38.189   7.536   41.685
H   37.343   6.321   40.844
H   40.087   5.325   41.036
H   38.575   8.463   39.634
H   38.561   7.743   38.005
H   40.053   8.501   38.738
H   41.927   6.683   39.310
H   41.217   6.632   37.721
H   41.480   4.621   37.220
H   40.492   4.082   38.678
H   42.509   3.287   39.652
H   43.410   4.697   39.421
H   42.879   3.143   36.972
H   44.434   1.531   37.424
H   44.689   2.109   39.111
H   45.656   2.717   37.903
H   45.356   4.858   37.379
H   43.921   5.737   37.488
H   43.823   5.903   35.409
H   43.578   4.147   35.071
H   46.295   4.264   35.417
H   46.089   5.725   34.564
H   44.731   3.272   33.460
H   46.867   2.646   32.461
H   47.572   3.443   33.820
H   47.461   4.354   32.313
H   45.667   5.271   31.581
H   44.579   5.999   32.753
H   42.817   4.360   32.207
H   43.993   3.629   31.059
H   43.814   6.375   30.588
H   42.247   5.890   30.686
H   44.017   4.025   29.052
H   41.860   3.792   28.882
H   42.449   4.332   27.342
H   41.379   5.425   28.270
H   44.861   6.703   28.779
H   43.925   6.078   27.342
H   45.403   5.172   28.091
