140
35
Mg   34.854   49.169   25.114
C   34.969   47.463   28.143
C   33.275   51.817   26.639
C   34.476   50.595   22.022
C   36.217   46.283   23.577
N   33.976   49.448   27.197
C   34.288   48.689   28.340
C   33.952   49.469   29.624
C   33.261   50.872   29.077
C   33.566   50.755   27.534
C   31.776   50.876   29.216
C   35.217   49.732   30.537
C   34.889   50.266   31.968
C   33.492   50.135   32.552
O   33.007   49.046   32.889
O   32.918   51.389   32.787
N   33.987   50.958   24.411
C   33.411   51.928   25.239
C   32.935   52.919   24.350
C   33.161   52.587   23.006
C   33.966   51.332   23.103
C   32.326   54.092   25.047
C   32.733   53.202   21.713
O   32.796   52.667   20.624
C   31.970   54.624   21.866
N   35.428   48.570   23.111
C   35.140   49.365   22.029
C   35.764   48.702   20.731
C   36.422   47.424   21.308
C   35.989   47.416   22.771
C   34.803   48.422   19.541
C   37.975   47.303   21.023
C   38.227   46.063   20.222
N   35.438   47.283   25.697
C   35.908   46.203   24.942
C   36.154   45.058   25.848
C   35.918   45.550   27.147
C   35.380   46.878   26.972
C   36.445   43.690   25.406
C   35.990   45.280   28.503
O   36.309   44.305   29.152
C   35.242   46.424   29.210
C   34.058   45.922   29.791
O   33.104   45.423   29.182
O   34.181   46.136   31.141
C   33.097   45.644   31.983
C   31.792   51.356   33.713
C   31.282   52.722   34.051
C   30.522   52.964   35.098
C   29.823   51.831   35.984
C   30.026   54.332   35.406
C   30.779   55.088   36.466
C   31.551   56.217   35.829
C   31.512   57.630   36.452
C   32.935   58.304   36.587
C   30.433   58.547   35.843
C   29.255   58.882   36.838
C   29.393   60.147   37.663
C   28.237   61.207   37.513
C   28.411   62.325   36.416
C   27.615   61.675   38.850
C   26.104   62.026   38.784
C   25.686   63.028   39.871
C   25.412   64.456   39.267
C   26.675   65.210   38.876
C   24.306   65.275   40.035
H   32.873   52.632   27.244
H   34.353   51.015   21.022
H   36.658   45.428   23.061
H   33.248   48.895   30.227
H   33.748   51.794   29.396
H   31.534   50.064   29.901
H   31.130   50.756   28.346
H   31.514   51.818   29.699
H   35.677   50.549   29.980
H   35.982   48.956   30.582
H   35.160   51.322   31.991
H   35.568   49.849   32.712
H   31.270   54.010   25.305
H   32.495   54.956   24.404
H   32.809   54.369   25.984
H   31.726   54.900   20.840
H   32.696   55.349   22.236
H   31.124   54.457   22.533
H   36.610   49.292   20.377
H   35.933   46.516   20.954
H   34.659   47.351   19.398
H   35.298   48.847   18.668
H   33.805   48.798   19.765
H   38.547   47.242   21.949
H   38.424   48.062   20.382
H   38.751   46.348   19.309
H   37.321   45.588   19.847
H   38.953   45.366   20.639
H   36.103   43.084   26.245
H   37.512   43.588   25.208
H   35.857   43.512   24.506
H   36.002   46.759   29.916
H   32.506   44.795   31.642
H   32.318   46.364   32.233
H   33.507   45.425   32.969
H   31.982   50.702   34.565
H   30.942   50.879   33.225
H   31.578   53.558   33.417
H   28.775   51.932   36.266
H   30.196   51.804   37.007
H   29.915   50.851   35.516
H   28.990   54.248   35.734
H   29.951   54.909   34.484
H   31.513   54.465   36.977
H   29.955   55.381   37.117
H   31.411   56.453   34.774
H   32.585   55.873   35.810
H   31.193   57.305   37.442
H   33.867   57.740   36.599
H   32.833   58.701   37.597
H   33.044   59.119   35.872
H   30.101   58.115   34.899
H   30.999   59.451   35.618
H   29.040   58.131   37.597
H   28.309   58.879   36.296
H   30.303   60.683   37.391
H   29.570   59.874   38.704
H   27.414   60.641   37.077
H   27.834   62.069   35.528
H   29.451   62.534   36.167
H   28.016   63.317   36.633
H   28.167   62.510   39.282
H   27.594   60.785   39.480
H   25.481   61.140   38.913
H   25.932   62.435   37.788
H   26.467   63.103   40.628
H   24.809   62.592   40.349
H   24.883   64.433   38.315
H   26.721   66.286   39.041
H   26.769   65.154   37.791
H   27.610   64.806   39.265
H   24.105   64.897   41.038
H   23.386   65.101   39.477
H   24.615   66.311   40.174
