140
23
Mg   -1.717   17.622   26.947
C   -1.911   15.396   29.612
C   -2.736   20.220   29.096
C   -1.660   19.738   24.290
C   -1.291   14.866   24.697
N   -1.948   17.793   29.119
C   -2.044   16.737   30.042
C   -2.381   17.253   31.460
C   -2.965   18.690   31.163
C   -2.463   18.965   29.649
C   -4.516   18.923   31.307
C   -1.305   17.132   32.563
C   -1.721   16.936   34.001
C   -0.633   16.573   35.034
O   0.522   16.235   34.703
O   -1.012   16.759   36.289
N   -2.181   19.678   26.732
C   -2.486   20.566   27.716
C   -2.542   21.838   27.117
C   -2.012   21.775   25.829
C   -1.927   20.351   25.550
C   -3.138   22.956   27.966
C   -1.574   22.860   24.813
O   -1.045   22.677   23.709
C   -1.734   24.288   25.269
N   -1.483   17.299   24.882
C   -1.470   18.382   23.968
C   -1.334   17.829   22.556
C   -0.953   16.336   22.711
C   -1.170   16.145   24.205
C   -2.543   18.091   21.587
C   0.459   16.053   22.196
C   1.517   16.802   23.019
N   -1.627   15.618   27.077
C   -1.503   14.621   26.042
C   -1.534   13.274   26.636
C   -1.642   13.544   28.014
C   -1.689   14.966   28.263
C   -1.384   11.976   25.862
C   -1.655   12.877   29.208
O   -1.597   11.682   29.457
C   -2.145   13.976   30.241
C   -1.416   13.700   31.545
O   -0.235   13.634   31.782
O   -2.442   13.602   32.522
C   -1.847   13.286   33.920
C   0.084   16.787   37.304
C   -0.311   17.812   38.363
C   -0.059   17.919   39.681
C   0.739   16.823   40.339
C   -0.612   19.088   40.456
C   -0.239   20.490   40.043
C   1.247   20.713   39.790
C   1.948   21.627   40.861
C   1.931   23.096   40.343
C   3.386   21.197   41.149
C   3.919   21.942   42.414
C   3.948   21.115   43.686
C   3.645   21.838   45.016
C   4.863   21.862   46.003
C   2.424   21.199   45.724
C   1.354   22.274   45.967
C   -0.030   21.800   46.521
C   -1.103   21.865   45.467
C   -2.492   22.119   46.211
C   -1.152   20.502   44.755
H   -3.118   20.924   29.839
H   -1.798   20.326   23.380
H   -1.273   13.988   24.048
H   -3.251   16.631   31.671
H   -2.583   19.449   31.845
H   -4.803   19.881   31.740
H   -4.823   18.209   32.072
H   -4.992   18.738   30.345
H   -0.845   18.120   32.517
H   -0.598   16.339   32.320
H   -2.443   16.120   34.018
H   -2.079   17.914   34.324
H   -4.014   22.710   28.566
H   -3.628   23.666   27.299
H   -2.418   23.525   28.553
H   -1.278   24.492   26.238
H   -2.802   24.456   25.408
H   -1.315   24.878   24.454
H   -0.553   18.482   22.166
H   -1.736   15.841   22.135
H   -3.447   18.426   22.095
H   -2.827   17.199   21.028
H   -2.345   18.923   20.911
H   0.673   16.511   21.230
H   0.629   14.977   22.165
H   1.216   16.960   24.054
H   1.866   17.751   22.611
H   2.309   16.054   23.043
H   -0.631   12.235   25.118
H   -2.279   11.560   25.399
H   -1.025   11.194   26.531
H   -3.179   13.774   30.523
H   -1.362   12.330   33.723
H   -2.707   13.105   34.565
H   -1.099   13.966   34.326
H   1.052   17.020   36.859
H   -0.009   15.792   37.739
H   -0.802   18.633   37.840
H   0.169   16.332   41.128
H   1.624   17.154   40.883
H   0.976   15.938   39.747
H   -0.394   18.943   41.514
H   -1.698   19.106   40.364
H   -0.449   21.189   40.853
H   -0.756   20.655   39.097
H   1.443   21.091   38.786
H   1.738   19.742   39.852
H   1.339   21.710   41.761
H   2.985   23.295   40.145
H   1.638   23.746   41.168
H   1.372   23.294   39.429
H   4.119   21.319   40.352
H   3.388   20.142   41.422
H   3.269   22.781   42.665
H   4.895   22.364   42.174
H   4.906   20.600   43.753
H   3.247   20.291   43.554
H   3.431   22.900   44.895
H   4.914   20.860   46.428
H   4.548   22.518   46.814
H   5.872   22.105   45.669
H   2.671   20.879   46.736
H   1.891   20.368   45.262
H   1.263   23.054   45.211
H   1.857   22.824   46.763
H   -0.212   22.523   47.316
H   0.083   20.810   46.963
H   -0.907   22.551   44.644
H   -2.262   22.533   47.193
H   -3.032   21.180   46.331
H   -2.985   22.870   45.593
H   -1.444   20.643   43.715
H   -1.700   19.750   45.322
H   -0.159   20.054   44.712
