140
36
Mg   -5.722   25.286   26.529
C   -4.000   27.315   28.885
C   -6.548   23.120   29.077
C   -6.839   23.273   24.235
C   -4.068   27.186   24.045
N   -5.320   25.305   28.663
C   -4.620   26.238   29.416
C   -4.910   26.001   30.928
C   -5.379   24.461   30.957
C   -5.824   24.297   29.509
C   -4.255   23.308   31.190
C   -5.965   26.983   31.559
C   -5.694   27.504   32.921
C   -6.735   27.138   34.017
O   -7.819   27.712   34.271
O   -6.423   25.995   34.635
N   -6.812   23.627   26.627
C   -6.998   22.809   27.781
C   -7.813   21.712   27.403
C   -8.062   21.839   25.995
C   -7.233   22.950   25.537
C   -8.299   20.748   28.436
C   -9.077   21.053   25.174
O   -9.250   21.344   24.012
C   -9.640   19.773   25.785
N   -5.377   25.177   24.484
C   -5.994   24.249   23.709
C   -5.849   24.469   22.214
C   -4.811   25.638   22.176
C   -4.723   26.039   23.632
C   -5.248   23.205   21.566
C   -5.377   26.810   21.365
C   -4.500   27.226   20.139
N   -4.482   27.076   26.413
C   -3.834   27.676   25.364
C   -3.042   28.853   25.851
C   -3.150   28.768   27.239
C   -3.930   27.624   27.526
C   -2.314   29.783   25.005
C   -2.782   29.399   28.474
O   -2.078   30.377   28.613
C   -3.358   28.467   29.707
C   -2.279   28.065   30.529
O   -1.327   27.354   30.129
O   -2.439   28.554   31.797
C   -1.518   27.891   32.772
C   -7.054   25.783   35.973
C   -7.950   24.637   35.979
C   -8.179   23.647   36.972
C   -7.745   23.588   38.398
C   -9.059   22.463   36.684
C   -10.519   22.615   37.142
C   -10.936   21.578   38.226
C   -12.085   20.660   37.870
C   -13.407   21.423   38.157
C   -12.057   19.311   38.643
C   -11.639   18.218   37.706
C   -11.160   16.952   38.595
C   -9.683   16.914   38.597
C   -9.037   17.799   39.739
C   -9.151   15.486   38.758
C   -7.804   15.216   38.140
C   -6.618   15.360   39.128
C   -5.345   14.607   38.749
C   -4.450   14.248   39.975
C   -4.504   15.263   37.633
H   -6.891   22.559   29.948
H   -7.260   22.488   23.604
H   -3.463   27.822   23.395
H   -3.910   26.025   31.363
H   -6.210   24.410   31.660
H   -3.324   23.843   31.376
H   -4.219   22.584   30.376
H   -4.600   22.822   32.103
H   -6.951   26.521   31.601
H   -6.125   27.819   30.878
H   -5.491   28.575   32.941
H   -4.750   27.055   33.227
H   -9.230   21.016   28.934
H   -7.579   20.637   29.247
H   -8.482   19.689   28.253
H   -10.131   20.089   26.705
H   -8.798   19.197   26.168
H   -10.477   19.228   25.346
H   -6.817   24.781   21.821
H   -3.767   25.409   21.960
H   -4.778   22.633   22.366
H   -4.505   23.408   20.795
H   -5.952   22.540   21.065
H   -5.609   27.678   21.982
H   -6.357   26.641   20.918
H   -4.076   28.229   20.180
H   -5.097   27.318   19.231
H   -3.686   26.538   19.915
H   -2.133   30.785   25.393
H   -2.663   29.847   23.975
H   -1.347   29.280   24.995
H   -4.207   28.931   30.210
H   -1.872   28.207   33.753
H   -0.476   28.212   32.773
H   -1.542   26.805   32.675
H   -7.586   26.633   36.403
H   -6.259   25.584   36.692
H   -8.403   24.412   35.014
H   -7.189   22.679   38.630
H   -8.665   23.715   38.967
H   -7.040   24.365   38.692
H   -8.679   21.541   37.122
H   -8.989   22.366   35.600
H   -11.117   22.438   36.249
H   -10.779   23.613   37.496
H   -11.187   22.140   39.126
H   -10.125   20.880   38.437
H   -12.038   20.500   36.793
H   -13.914   20.989   39.019
H   -14.200   21.443   37.409
H   -13.223   22.435   38.518
H   -13.010   18.969   39.045
H   -11.517   19.360   39.588
H   -10.842   18.571   37.053
H   -12.482   17.954   37.068
H   -11.599   16.018   38.243
H   -11.530   17.107   39.608
H   -9.214   17.337   37.709
H   -9.477   17.560   40.707
H   -9.111   18.837   39.414
H   -7.961   17.729   39.899
H   -9.851   14.795   38.288
H   -9.058   15.270   39.822
H   -7.547   16.001   37.429
H   -7.780   14.248   37.640
H   -6.920   14.948   40.091
H   -6.440   16.435   39.159
H   -5.524   13.695   38.179
H   -5.088   13.689   40.660
H   -4.023   15.119   40.473
H   -3.640   13.547   39.772
H   -5.111   16.048   37.182
H   -4.098   14.717   36.781
H   -3.621   15.717   38.083
