140
13
Mg   46.192   24.376   28.456
C   46.598   26.635   31.177
C   45.279   21.844   30.781
C   46.330   22.249   26.016
C   47.616   26.907   26.320
N   46.021   24.271   30.734
C   46.097   25.401   31.591
C   45.601   25.030   33.062
C   45.413   23.463   32.901
C   45.555   23.108   31.352
C   46.290   22.595   33.899
C   44.417   25.815   33.559
C   44.740   26.678   34.814
C   43.767   26.700   35.964
O   42.636   26.347   35.928
O   44.373   27.354   37.049
N   45.800   22.388   28.371
C   45.338   21.563   29.342
C   45.028   20.286   28.756
C   45.502   20.289   27.429
C   45.909   21.672   27.205
C   44.304   19.176   29.525
C   45.397   19.177   26.346
O   45.863   19.243   25.201
C   44.805   17.886   26.765
N   46.749   24.599   26.442
C   46.723   23.495   25.651
C   47.334   23.756   24.294
C   47.521   25.312   24.327
C   47.278   25.666   25.765
C   48.584   22.895   23.974
C   46.676   26.183   23.391
C   45.162   26.185   23.483
N   46.905   26.420   28.624
C   47.364   27.286   27.657
C   47.723   28.508   28.339
C   47.377   28.356   29.692
C   46.903   27.036   29.804
C   48.331   29.722   27.714
C   47.296   29.029   30.942
O   47.621   30.122   31.362
C   46.850   27.851   31.969
C   47.975   27.681   32.931
O   48.949   26.980   32.781
O   47.692   28.355   34.083
C   48.448   28.151   35.366
C   43.522   27.578   38.187
C   43.566   26.449   39.194
C   43.201   26.492   40.487
C   42.610   27.598   41.222
C   43.253   25.133   41.258
C   42.258   24.041   40.767
C   41.517   23.155   41.760
C   40.006   23.400   41.938
C   39.276   22.995   40.588
C   39.743   24.844   42.225
C   38.694   24.948   43.378
C   39.277   25.466   44.691
C   39.213   24.471   45.819
C   37.793   24.550   46.463
C   40.275   24.910   46.776
C   41.467   23.956   46.746
C   42.792   24.792   46.771
C   43.405   24.909   45.382
C   44.349   23.673   45.183
C   44.251   26.276   45.291
H   44.857   21.158   31.518
H   46.174   21.542   25.198
H   48.150   27.557   25.624
H   46.455   25.131   33.731
H   44.389   23.109   33.018
H   46.045   23.202   34.771
H   47.370   22.645   33.759
H   45.888   21.582   33.873
H   43.668   25.055   33.782
H   43.926   26.424   32.801
H   44.723   27.682   34.390
H   45.715   26.558   35.285
H   44.907   18.272   29.610
H   43.374   18.831   29.074
H   44.111   19.350   30.584
H   45.357   17.526   27.634
H   44.871   17.145   25.969
H   43.754   18.150   26.889
H   46.590   23.477   23.548
H   48.554   25.551   24.076
H   48.343   21.832   23.940
H   49.356   23.038   24.730
H   48.779   23.262   22.966
H   46.821   25.816   22.375
H   47.065   27.197   23.492
H   44.777   25.514   24.250
H   44.798   25.741   22.556
H   44.833   27.213   23.633
H   48.860   29.618   26.766
H   48.891   30.163   28.538
H   47.534   30.462   27.636
H   45.943   28.150   32.494
H   49.322   27.512   35.237
H   47.793   27.741   36.135
H   48.740   29.134   35.738
H   42.475   27.742   37.934
H   43.876   28.426   38.772
H   43.987   25.546   38.752
H   43.226   27.826   42.092
H   41.608   27.280   41.511
H   42.564   28.543   40.680
H   42.918   25.256   42.288
H   44.273   24.758   41.336
H   42.614   23.371   39.984
H   41.532   24.717   40.315
H   41.884   23.382   42.761
H   41.780   22.131   41.496
H   39.764   22.797   42.813
H   38.950   23.908   40.089
H   38.420   22.335   40.730
H   39.951   22.580   39.839
H   39.412   25.449   41.382
H   40.641   25.379   42.536
H   38.004   24.110   43.476
H   38.028   25.754   43.069
H   38.788   26.371   45.050
H   40.333   25.609   44.462
H   39.294   23.470   45.394
H   37.639   25.288   47.250
H   37.632   23.570   46.913
H   37.104   24.703   45.632
H   39.838   24.798   47.769
H   40.566   25.960   46.729
H   41.456   23.403   45.806
H   41.572   23.177   47.500
H   43.425   24.237   47.463
H   42.584   25.728   47.291
H   42.558   25.003   44.702
H   44.364   23.219   44.192
H   44.161   22.806   45.817
H   45.347   24.098   45.289
H   43.974   26.913   46.132
H   43.937   26.839   44.412
H   45.323   26.115   45.176
