140
31
Mg   17.471   -2.981   27.808
C   16.308   -0.962   30.368
C   19.393   -4.648   29.954
C   18.723   -4.775   25.168
C   16.012   -0.679   25.535
N   17.866   -2.744   29.891
C   17.189   -1.984   30.753
C   17.678   -2.218   32.217
C   18.830   -3.247   32.045
C   18.781   -3.547   30.518
C   20.218   -2.811   32.512
C   16.510   -2.711   33.174
C   16.521   -2.126   34.551
C   17.848   -1.502   35.125
O   18.189   -0.365   35.155
O   18.672   -2.445   35.739
N   18.683   -4.599   27.597
C   19.332   -5.167   28.595
C   20.045   -6.325   28.115
C   19.837   -6.349   26.746
C   18.962   -5.270   26.444
C   20.727   -7.264   29.076
C   20.399   -7.356   25.739
O   20.226   -7.266   24.505
C   21.224   -8.462   26.200
N   17.436   -2.725   25.669
C   18.084   -3.549   24.840
C   18.127   -2.972   23.395
C   16.976   -1.928   23.523
C   16.836   -1.716   25.029
C   19.510   -2.377   23.022
C   15.594   -2.306   22.807
C   14.404   -2.666   23.702
N   16.224   -1.254   27.896
C   15.770   -0.361   26.861
C   15.075   0.687   27.470
C   15.209   0.459   28.824
C   15.955   -0.669   29.025
C   14.387   1.790   26.811
C   14.787   0.951   30.122
O   14.020   1.941   30.307
C   15.582   0.028   31.131
C   16.329   0.974   31.979
O   17.456   1.357   31.760
O   15.437   1.336   32.902
C   15.982   2.093   34.018
C   19.951   -1.905   36.333
C   20.831   -3.137   36.546
C   21.887   -3.316   37.352
C   22.622   -2.218   38.178
C   22.510   -4.751   37.459
C   21.531   -5.705   38.129
C   21.886   -5.949   39.583
C   22.284   -7.427   39.883
C   21.147   -8.358   40.360
C   23.448   -7.360   40.845
C   24.288   -8.698   41.112
C   24.030   -9.101   42.569
C   25.333   -9.854   43.142
C   24.983   -10.995   43.980
C   26.263   -8.815   43.821
C   27.797   -9.018   43.430
C   28.577   -9.722   44.532
C   29.414   -10.975   44.023
C   30.547   -11.256   45.042
C   28.582   -12.255   43.818
H   19.949   -5.233   30.690
H   19.233   -5.181   24.291
H   15.384   -0.055   24.897
H   18.021   -1.280   32.653
H   18.612   -4.182   32.561
H   21.056   -2.841   31.815
H   20.498   -3.440   33.357
H   20.245   -1.778   32.859
H   16.445   -3.797   33.252
H   15.564   -2.480   32.684
H   16.322   -2.982   35.195
H   15.764   -1.343   34.585
H   21.755   -7.444   28.762
H   20.194   -8.205   28.946
H   20.863   -6.978   30.119
H   20.608   -8.900   26.986
H   22.180   -8.109   26.588
H   21.392   -9.085   25.321
H   17.796   -3.736   22.691
H   17.288   -0.947   23.164
H   20.237   -2.201   23.815
H   19.445   -1.360   22.636
H   19.947   -3.062   22.296
H   15.788   -3.200   22.214
H   15.341   -1.446   22.187
H   14.017   -1.816   24.263
H   14.759   -3.411   24.413
H   13.523   -3.062   23.197
H   14.756   2.768   27.120
H   13.349   1.748   27.140
H   14.445   1.669   25.729
H   14.901   -0.557   31.750
H   17.004   1.862   34.317
H   15.572   1.953   35.019
H   15.773   3.136   33.783
H   19.698   -1.433   37.283
H   20.372   -1.154   35.665
H   20.534   -4.027   35.992
H   23.694   -2.181   37.982
H   22.569   -2.539   39.218
H   22.196   -1.219   38.086
H   23.375   -4.741   38.122
H   22.883   -5.096   36.495
H   21.679   -6.655   37.616
H   20.510   -5.337   38.029
H   20.998   -5.796   40.197
H   22.558   -5.193   39.991
H   22.597   -7.995   39.008
H   21.240   -9.385   40.007
H   20.191   -7.922   40.070
H   21.277   -8.455   41.438
H   23.288   -6.812   41.773
H   24.214   -6.802   40.307
H   25.329   -8.552   40.823
H   23.890   -9.529   40.529
H   23.081   -9.623   42.686
H   23.962   -8.208   43.191
H   25.841   -10.273   42.274
H   24.863   -11.838   43.299
H   24.085   -10.816   44.571
H   25.756   -11.272   44.696
H   26.064   -8.786   44.892
H   25.957   -7.836   43.450
H   28.241   -8.030   43.549
H   28.046   -9.377   42.431
H   28.008   -10.183   45.338
H   29.251   -8.934   44.867
H   29.814   -10.800   43.024
H   31.482   -10.922   44.593
H   30.652   -12.325   45.227
H   30.423   -10.662   45.948
H   29.168   -13.173   43.862
H   28.065   -12.222   42.858
H   27.788   -12.402   44.549
