140
3
Mg   40.739   41.505   27.410
C   39.773   43.713   29.884
C   41.805   39.340   29.678
C   41.690   39.517   24.814
C   39.795   44.051   25.063
N   40.519   41.431   29.497
C   40.053   42.442   30.381
C   40.297   42.077   31.829
C   41.139   40.779   31.771
C   41.057   40.440   30.225
C   42.515   40.854   32.443
C   39.050   42.009   32.602
C   39.211   41.609   34.082
C   38.960   42.758   35.052
O   39.662   43.722   35.335
O   37.732   42.614   35.630
N   41.639   39.686   27.311
C   41.987   38.955   28.347
C   42.577   37.721   27.867
C   42.554   37.701   26.470
C   41.965   39.038   26.145
C   43.014   36.569   28.730
C   43.177   36.710   25.452
O   43.108   36.766   24.227
C   43.902   35.553   25.994
N   40.714   41.704   25.279
C   41.179   40.789   24.422
C   40.892   41.182   22.932
C   40.081   42.466   23.116
C   40.155   42.828   24.582
C   42.088   41.372   22.008
C   38.603   42.399   22.630
C   37.766   41.303   23.340
N   40.059   43.467   27.445
C   39.756   44.401   26.458
C   39.277   45.592   26.969
C   39.288   45.363   28.381
C   39.781   44.121   28.572
C   39.003   46.895   26.248
C   39.037   45.968   29.628
O   38.565   47.010   29.917
C   39.380   44.887   30.700
C   40.461   45.469   31.568
O   41.517   45.843   31.153
O   40.060   45.628   32.948
C   41.088   45.980   33.824
C   37.287   43.588   36.588
C   37.039   43.023   38.021
C   36.736   43.635   39.173
C   36.500   45.206   39.348
C   36.721   42.873   40.470
C   37.947   42.332   40.957
C   37.966   40.766   41.056
C   38.521   40.163   42.312
C   39.440   38.884   41.945
C   37.439   39.739   43.374
C   37.692   40.110   44.886
C   37.533   38.911   45.856
C   36.235   38.941   46.549
C   36.317   39.078   48.095
C   35.247   37.733   46.322
C   34.575   37.814   44.966
C   35.086   36.714   44.019
C   34.217   35.447   44.091
C   33.545   35.101   42.750
C   34.920   34.213   44.630
H   42.053   38.686   30.517
H   42.067   38.854   24.033
H   39.409   44.781   24.349
H   40.857   42.898   32.276
H   40.659   39.970   32.322
H   42.468   41.678   33.155
H   43.297   40.975   31.693
H   42.810   39.940   32.958
H   38.258   41.489   32.064
H   38.759   43.058   32.656
H   40.205   41.198   34.262
H   38.588   40.759   34.359
H   42.652   35.581   28.443
H   42.812   36.768   29.782
H   44.093   36.420   28.733
H   44.733   35.866   26.627
H   44.298   35.039   25.118
H   43.203   34.868   26.474
H   40.327   40.308   22.608
H   40.661   43.208   22.568
H   42.809   42.060   22.449
H   41.737   41.733   21.042
H   42.558   40.394   21.902
H   38.758   42.089   21.596
H   38.050   43.328   22.764
H   37.099   40.810   22.634
H   37.152   41.849   24.056
H   38.420   40.604   23.862
H   38.259   46.776   25.459
H   39.909   47.374   25.877
H   38.540   47.532   27.002
H   38.453   44.769   31.262
H   41.243   47.048   33.671
H   41.943   45.308   33.748
H   40.720   46.005   34.850
H   36.301   43.940   36.286
H   37.842   44.526   36.621
H   37.248   41.967   38.191
H   37.368   45.658   39.828
H   35.554   45.366   39.865
H   36.539   45.542   38.312
H   35.872   42.189   40.486
H   36.433   43.609   41.221
H   38.179   42.748   41.938
H   38.730   42.748   40.324
H   38.424   40.230   40.224
H   36.942   40.397   41.104
H   39.130   40.897   42.840
H   39.379   38.005   42.587
H   40.462   39.225   42.111
H   39.372   38.527   40.918
H   37.188   38.679   43.332
H   36.495   40.244   43.169
H   37.019   40.925   45.153
H   38.701   40.492   45.041
H   38.444   38.825   46.449
H   37.544   37.980   45.291
H   35.698   39.808   46.165
H   37.239   38.728   48.559
H   35.474   38.522   48.506
H   36.309   40.123   48.405
H   34.561   37.443   47.118
H   35.956   36.905   46.317
H   34.783   38.777   44.499
H   33.498   37.826   45.136
H   36.107   36.345   44.117
H   35.056   37.133   43.013
H   33.352   35.607   44.735
H   34.144   35.339   41.871
H   32.657   35.724   42.635
H   33.264   34.048   42.733
H   35.749   33.831   44.036
H   34.278   33.336   44.710
H   35.133   34.540   45.648
