140
38
Mg   44.122   4.403   48.978
C   41.864   6.914   48.082
C   41.428   2.090   48.602
C   46.249   1.757   49.010
C   46.702   6.528   48.514
N   41.940   4.532   48.507
C   41.208   5.703   48.240
C   39.712   5.470   48.170
C   39.629   3.980   48.613
C   41.046   3.470   48.582
C   38.947   3.721   50.010
C   39.018   5.749   46.733
C   39.932   5.721   45.452
C   39.869   6.869   44.339
O   39.338   7.959   44.496
O   40.556   6.519   43.194
N   43.877   2.296   48.900
C   42.731   1.570   48.684
C   43.034   0.145   48.715
C   44.413   0.030   48.903
C   44.908   1.423   48.942
C   42.017   -0.963   48.539
C   45.176   -1.375   49.014
O   44.612   -2.422   48.911
C   46.617   -1.453   49.328
N   46.251   4.177   48.770
C   46.905   2.988   48.911
C   48.392   3.201   49.056
C   48.459   4.702   48.607
C   47.078   5.192   48.562
C   49.003   2.696   50.359
C   49.157   5.020   47.219
C   50.675   5.041   47.385
N   44.306   6.369   48.568
C   45.415   7.153   48.394
C   45.118   8.469   48.070
C   43.700   8.465   47.983
C   43.237   7.151   48.317
C   46.136   9.586   48.026
C   42.536   9.183   47.750
O   42.529   10.400   47.526
C   41.284   8.330   47.885
C   40.397   8.732   49.010
O   40.641   8.556   50.166
O   39.175   9.116   48.492
C   38.130   9.378   49.424
C   40.812   7.653   42.239
C   41.346   7.241   40.850
C   40.550   7.147   39.766
C   39.053   7.466   39.650
C   41.165   6.640   38.472
C   41.332   5.058   38.290
C   42.870   4.765   37.952
C   43.150   3.236   37.841
C   43.275   2.542   39.187
C   44.338   3.002   36.867
C   43.811   2.717   35.467
C   44.314   3.810   34.558
C   44.769   3.354   33.204
C   46.107   2.519   33.355
C   45.037   4.530   32.296
C   43.723   5.250   31.924
C   43.611   5.537   30.425
C   43.444   4.210   29.682
C   42.029   3.997   29.154
C   44.523   4.111   28.479
H   40.639   1.335   48.589
H   46.985   0.962   49.148
H   47.592   7.139   48.348
H   39.218   6.050   48.949
H   39.101   3.437   47.830
H   38.417   4.580   50.420
H   39.665   3.366   50.749
H   38.331   2.829   49.895
H   38.539   6.727   46.782
H   38.164   5.072   46.717
H   39.658   4.892   44.799
H   40.998   5.803   45.664
H   40.969   -0.682   48.436
H   42.082   -1.724   49.317
H   42.274   -1.450   47.598
H   46.973   -0.887   50.188
H   47.196   -1.051   48.497
H   47.015   -2.435   49.584
H   48.741   2.615   48.206
H   48.950   5.291   49.382
H   48.978   3.577   51.001
H   50.009   2.290   50.247
H   48.316   2.031   50.882
H   48.734   5.990   46.960
H   48.919   4.323   46.415
H   51.123   6.023   47.236
H   51.027   4.257   46.714
H   50.890   4.680   48.391
H   45.796   10.514   47.566
H   47.055   9.318   47.506
H   46.526   9.841   49.012
H   40.849   8.605   46.924
H   37.164   9.536   48.946
H   38.322   10.389   49.784
H   38.007   8.596   50.173
H   41.700   8.051   42.729
H   40.010   8.383   42.124
H   42.417   7.069   40.746
H   38.568   7.087   38.750
H   39.054   8.545   39.802
H   38.668   6.983   40.548
H   42.123   7.156   38.414
H   40.547   7.066   37.681
H   40.692   4.557   37.563
H   41.274   4.540   39.248
H   43.464   5.041   38.823
H   43.244   5.343   37.106
H   42.317   2.607   37.524
H   44.288   2.432   39.574
H   42.995   1.494   39.081
H   42.713   2.968   40.018
H   44.861   2.133   37.266
H   44.996   3.857   37.025
H   42.773   2.392   35.390
H   44.387   1.815   35.263
H   45.047   4.475   35.016
H   43.416   4.412   34.422
H   43.923   2.776   32.833
H   46.922   2.980   32.798
H   45.884   1.563   32.880
H   46.397   2.493   34.406
H   45.574   4.155   31.424
H   45.662   5.264   32.804
H   43.762   6.219   32.420
H   42.848   4.707   32.281
H   44.470   6.136   30.124
H   42.806   6.259   30.289
H   43.755   3.365   30.297
H   42.182   3.582   28.158
H   41.448   4.919   29.107
H   41.529   3.255   29.776
H   45.539   4.171   28.872
H   44.434   4.908   27.741
H   44.516   3.083   28.116
