140
22
Mg   29.070   59.013   41.293
C   26.150   57.420   40.308
C   30.918   56.419   39.827
C   31.825   61.039   41.276
C   27.042   61.900   41.922
N   28.491   57.173   40.142
C   27.250   56.663   39.962
C   27.351   55.328   39.192
C   28.852   54.911   39.483
C   29.485   56.273   39.740
C   29.099   53.775   40.534
C   26.989   55.374   37.664
C   26.568   54.085   36.956
C   26.162   54.250   35.490
O   24.996   54.390   35.160
O   27.251   54.443   34.607
N   31.092   58.698   40.825
C   31.600   57.589   40.183
C   33.041   57.850   40.000
C   33.371   59.128   40.519
C   32.091   59.681   40.911
C   33.980   56.863   39.377
C   34.817   59.709   40.623
O   35.795   59.190   40.134
C   35.140   61.001   41.431
N   29.385   61.085   41.493
C   30.628   61.623   41.627
C   30.564   63.138   42.010
C   29.077   63.376   42.377
C   28.460   62.016   41.904
C   31.482   63.663   43.130
C   28.376   64.631   41.888
C   27.858   65.579   42.875
N   27.007   59.569   41.292
C   26.318   60.736   41.634
C   24.905   60.591   41.579
C   24.755   59.243   41.098
C   26.083   58.676   40.936
C   23.821   61.466   42.104
C   23.802   58.209   40.764
O   22.591   58.085   40.819
C   24.726   57.023   40.225
C   24.529   55.794   41.081
O   24.877   55.666   42.245
O   23.914   54.782   40.330
C   23.946   53.377   40.965
C   26.860   54.846   33.237
C   27.979   54.672   32.175
C   28.031   54.121   30.901
C   26.770   53.776   30.095
C   29.396   53.975   30.199
C   30.137   55.310   30.059
C   31.313   55.489   30.976
C   32.527   56.033   30.249
C   32.317   57.569   29.968
C   33.825   55.709   30.986
C   34.392   54.265   30.541
C   35.922   54.361   30.351
C   36.635   53.607   29.243
C   37.505   52.468   29.699
C   37.312   54.441   28.162
C   36.393   54.667   26.998
C   37.105   55.535   25.919
C   36.885   57.046   26.284
C   36.050   57.828   25.260
C   38.215   57.758   26.574
H   31.529   55.573   39.503
H   32.627   61.685   40.916
H   26.401   62.597   42.466
H   26.640   54.657   39.674
H   29.308   54.523   38.572
H   29.391   54.111   41.530
H   30.012   53.332   40.135
H   28.189   53.192   40.675
H   27.847   55.803   37.147
H   26.181   56.099   37.560
H   25.781   53.590   37.525
H   27.420   53.405   36.957
H   34.650   57.416   38.719
H   33.398   56.166   38.775
H   34.424   56.355   40.233
H   34.942   61.967   40.967
H   36.177   61.097   41.750
H   34.563   60.883   42.349
H   30.833   63.681   41.104
H   28.946   63.365   43.459
H   32.297   62.997   43.411
H   31.045   64.105   44.026
H   32.044   64.507   42.729
H   27.495   64.273   41.355
H   28.988   65.215   41.202
H   27.752   65.198   43.891
H   26.806   65.758   42.656
H   28.452   66.491   42.815
H   24.145   62.171   42.868
H   22.973   60.870   42.443
H   23.521   62.160   41.319
H   24.485   56.748   39.198
H   24.711   53.351   41.741
H   24.085   52.820   40.039
H   23.061   53.041   41.505
H   26.415   55.840   33.208
H   26.014   54.338   32.773
H   28.971   54.916   32.558
H   27.014   52.952   29.424
H   26.318   54.669   29.664
H   26.068   53.255   30.746
H   29.387   53.565   29.188
H   29.962   53.302   30.843
H   29.348   56.038   30.246
H   30.313   55.520   29.004
H   31.607   54.499   31.326
H   31.032   56.096   31.837
H   32.617   55.640   29.236
H   31.384   58.025   30.298
H   32.415   57.695   28.890
H   33.065   58.186   30.467
H   33.641   55.645   32.058
H   34.530   56.526   30.833
H   33.929   53.945   29.608
H   34.205   53.517   31.311
H   36.460   54.154   31.276
H   36.227   55.405   30.284
H   35.851   53.038   28.744
H   37.540   51.676   28.950
H   37.029   52.093   30.604
H   38.539   52.757   29.889
H   38.194   53.893   27.831
H   37.579   55.413   28.578
H   35.435   55.038   27.364
H   36.086   53.742   26.509
H   36.613   55.155   25.023
H   38.149   55.270   25.748
H   36.417   57.148   27.263
H   36.583   58.565   24.661
H   35.206   58.244   25.810
H   35.655   57.105   24.546
H   38.626   57.600   27.572
H   38.072   58.837   26.509
H   38.925   57.525   25.780
