140
29
Mg   33.671   48.627   25.037
C   34.098   47.199   28.237
C   31.973   51.248   26.623
C   33.164   49.803   22.092
C   35.181   45.691   23.682
N   33.310   49.222   27.253
C   33.567   48.521   28.334
C   33.284   49.366   29.611
C   32.468   50.557   29.051
C   32.649   50.386   27.548
C   31.056   50.639   29.507
C   34.501   49.720   30.352
C   34.414   49.696   31.856
C   33.015   49.560   32.542
O   32.431   48.468   32.700
O   32.569   50.802   33.056
N   32.701   50.315   24.433
C   32.070   51.261   25.175
C   31.644   52.359   24.282
C   31.909   51.938   22.962
C   32.616   50.598   23.160
C   30.993   53.595   24.717
C   31.565   52.713   21.726
O   31.917   52.236   20.654
C   30.737   54.005   21.690
N   34.129   47.855   23.149
C   33.891   48.584   21.990
C   34.479   47.974   20.738
C   35.063   46.654   21.285
C   34.859   46.778   22.784
C   33.388   47.847   19.603
C   36.565   46.301   20.787
C   37.759   46.755   21.705
N   34.313   46.696   25.668
C   34.962   45.693   25.097
C   35.316   44.636   26.028
C   34.928   45.223   27.311
C   34.423   46.438   27.058
C   35.873   43.301   25.668
C   34.973   45.013   28.772
O   35.352   44.041   29.345
C   34.404   46.301   29.388
C   33.170   45.795   30.004
O   32.086   45.659   29.457
O   33.508   45.468   31.325
C   32.448   44.771   32.120
C   31.290   50.621   33.749
C   30.733   52.038   33.890
C   30.544   52.769   35.025
C   30.960   52.444   36.483
C   29.964   54.247   34.957
C   30.955   55.419   35.149
C   30.347   56.792   34.693
C   30.420   57.846   35.817
C   31.850   58.182   36.131
C   29.559   59.026   35.391
C   28.080   59.191   35.917
C   27.994   60.030   37.191
C   27.536   61.519   37.129
C   28.431   62.470   38.036
C   26.077   61.548   37.637
C   25.128   62.495   36.843
C   24.528   63.621   37.709
C   23.995   64.828   36.741
C   25.076   65.917   36.513
C   22.771   65.476   37.321
H   31.506   52.103   27.116
H   32.998   50.207   21.091
H   35.685   44.814   23.269
H   32.635   48.757   30.241
H   32.980   51.491   29.283
H   30.706   49.728   29.992
H   30.458   50.702   28.597
H   30.856   51.422   30.238
H   34.722   50.752   30.082
H   35.357   49.162   29.970
H   34.985   50.529   32.265
H   34.934   48.773   32.116
H   31.540   54.442   24.305
H   31.125   53.696   25.794
H   29.923   53.683   24.525
H   29.806   54.005   22.257
H   30.510   54.286   20.661
H   31.359   54.800   22.100
H   35.276   48.680   20.505
H   34.406   45.834   20.995
H   32.629   48.620   19.479
H   32.822   46.954   19.870
H   33.767   47.682   18.594
H   36.799   46.776   19.834
H   36.622   45.215   20.712
H   37.529   47.435   22.526
H   38.344   47.384   21.035
H   38.346   45.935   22.119
H   36.956   43.351   25.556
H   35.377   42.869   24.799
H   35.755   42.624   26.514
H   35.169   46.674   30.070
H   32.827   43.752   32.198
H   31.473   44.895   31.649
H   32.356   45.264   33.088
H   31.574   50.293   34.749
H   30.519   49.998   33.296
H   30.629   52.576   32.948
H   31.660   51.613   36.570
H   30.139   52.215   37.162
H   31.435   53.287   36.986
H   29.241   54.329   35.769
H   29.295   54.304   34.098
H   31.845   55.327   34.526
H   31.353   55.537   36.157
H   29.299   56.624   34.447
H   30.901   57.023   33.783
H   29.891   57.385   36.651
H   32.212   57.491   36.893
H   31.887   59.199   36.521
H   32.527   58.183   35.277
H   29.424   59.125   34.314
H   30.019   59.966   35.696
H   27.694   58.186   36.086
H   27.659   59.629   35.013
H   28.970   60.060   37.675
H   27.359   59.392   37.805
H   27.574   61.924   36.118
H   29.108   62.964   37.340
H   28.929   61.973   38.868
H   27.892   63.333   38.427
H   26.061   61.905   38.666
H   25.537   60.602   37.670
H   24.302   61.904   36.446
H   25.690   62.996   36.055
H   25.305   64.021   38.360
H   23.747   63.184   38.332
H   23.806   64.484   35.724
H   26.044   65.585   36.888
H   24.899   66.823   37.093
H   25.095   66.275   35.483
H   21.903   64.950   36.926
H   22.702   66.506   36.972
H   22.806   65.459   38.411
