140
1
Mg   52.532   24.272   45.278
C   49.695   26.145   43.971
C   51.045   21.439   44.032
C   55.558   22.862   45.084
C   53.786   27.156   46.565
N   50.652   23.900   43.946
C   49.600   24.825   43.606
C   48.415   24.053   43.019
C   48.700   22.567   43.387
C   50.226   22.570   43.840
C   47.769   22.007   44.564
C   48.044   24.343   41.594
C   49.095   25.060   40.714
C   48.969   25.397   39.217
O   48.814   26.490   38.700
O   48.923   24.209   38.402
N   53.202   22.330   44.767
C   52.423   21.316   44.255
C   53.276   20.093   44.131
C   54.571   20.566   44.327
C   54.536   21.980   44.693
C   52.686   18.786   43.735
C   55.857   19.705   44.161
O   55.729   18.565   43.751
C   57.249   20.219   44.324
N   54.406   25.034   45.628
C   55.489   24.156   45.603
C   56.748   24.823   46.157
C   56.169   26.074   46.912
C   54.729   26.077   46.394
C   57.691   23.988   47.061
C   56.925   27.423   46.689
C   57.797   27.947   47.920
N   51.876   26.259   45.369
C   52.486   27.322   46.019
C   51.586   28.449   46.025
C   50.558   28.021   45.174
C   50.791   26.666   44.832
C   51.912   29.799   46.687
C   49.305   28.377   44.582
O   48.718   29.466   44.743
C   48.584   27.144   43.877
C   48.236   27.644   42.532
O   48.985   28.235   41.747
O   46.975   27.217   42.277
C   46.327   27.762   41.043
C   48.504   24.347   36.970
C   49.038   23.025   36.183
C   48.510   21.799   36.159
C   47.160   21.356   36.757
C   49.158   20.707   35.271
C   50.643   20.476   35.634
C   51.514   20.759   34.429
C   52.881   20.132   34.723
C   53.995   20.630   33.703
C   52.957   18.602   34.688
C   52.149   17.939   33.537
C   52.756   16.582   33.120
C   51.855   15.649   32.315
C   50.889   15.007   33.288
C   52.631   14.592   31.513
C   53.483   15.137   30.251
C   52.884   14.534   28.954
C   53.893   13.766   28.055
C   53.843   14.023   26.477
C   53.883   12.239   28.139
H   50.579   20.542   43.620
H   56.538   22.383   45.028
H   54.161   28.033   47.096
H   47.651   24.444   43.691
H   48.717   21.909   42.518
H   47.153   21.264   44.059
H   47.213   22.832   45.010
H   48.447   21.516   45.263
H   47.087   24.863   41.633
H   47.846   23.335   41.228
H   49.999   24.460   40.823
H   49.294   26.052   41.120
H   53.066   18.579   42.735
H   51.601   18.884   43.754
H   52.951   18.031   44.476
H   57.605   20.973   43.623
H   58.003   19.451   44.154
H   57.230   20.507   45.375
H   57.212   25.048   45.196
H   56.152   25.774   47.960
H   58.567   23.603   46.538
H   57.165   23.102   47.415
H   57.948   24.606   47.922
H   56.284   28.251   46.385
H   57.545   27.232   45.813
H   58.713   28.267   47.424
H   58.013   27.199   48.683
H   57.201   28.707   48.424
H   51.050   30.363   47.044
H   52.358   30.332   45.848
H   52.476   29.641   47.606
H   47.714   26.852   44.467
H   45.326   27.340   40.947
H   46.887   27.487   40.149
H   46.323   28.832   41.246
H   49.046   25.194   36.550
H   47.461   24.659   37.022
H   49.982   23.094   35.642
H   47.341   20.633   37.552
H   46.475   20.976   35.999
H   46.720   22.222   37.251
H   49.119   21.189   34.294
H   48.700   19.718   35.274
H   50.672   19.404   35.826
H   50.967   20.965   36.553
H   51.529   21.825   34.199
H   51.024   20.206   33.627
H   53.118   20.545   35.703
H   54.614   21.416   34.135
H   53.668   20.970   32.720
H   54.689   19.819   33.483
H   52.421   18.206   35.550
H   53.973   18.222   34.798
H   51.782   18.585   32.740
H   51.127   17.666   33.797
H   53.100   16.127   34.049
H   53.621   16.787   32.490
H   51.305   16.181   31.539
H   49.887   15.268   32.946
H   51.039   15.344   34.314
H   51.129   13.946   33.364
H   51.940   13.799   31.226
H   53.327   14.130   32.212
H   54.530   14.875   30.410
H   53.293   16.207   30.165
H   52.492   15.372   28.378
H   52.051   13.891   29.237
H   54.858   14.146   28.390
H   52.805   14.088   26.150
H   54.302   13.211   25.913
H   54.379   14.958   26.307
H   54.888   11.862   28.333
H   53.416   11.801   27.257
H   53.424   11.959   29.087
