140
4
Mg   46.583   24.927   28.560
C   47.462   27.334   30.951
C   45.855   22.868   31.069
C   46.910   22.356   26.360
C   47.682   27.178   26.106
N   46.780   25.104   30.829
C   46.902   26.201   31.568
C   46.518   26.038   33.025
C   46.205   24.487   33.034
C   46.199   24.168   31.547
C   47.223   23.678   33.905
C   45.324   26.942   33.540
C   45.478   27.347   35.060
C   44.501   26.835   36.100
O   43.546   26.114   35.840
O   44.808   27.270   37.350
N   46.262   22.884   28.688
C   45.793   22.276   29.764
C   45.478   20.925   29.448
C   46.028   20.651   28.092
C   46.436   21.996   27.655
C   44.727   19.919   30.419
C   46.205   19.352   27.325
O   46.694   19.265   26.201
C   45.704   18.020   27.886
N   47.258   24.784   26.621
C   47.284   23.647   25.876
C   47.620   23.890   24.359
C   47.589   25.422   24.315
C   47.496   25.846   25.763
C   48.992   23.257   23.834
C   46.438   25.955   23.407
C   45.175   26.285   24.239
N   47.257   26.868   28.505
C   47.695   27.642   27.425
C   48.062   28.955   27.856
C   48.106   28.818   29.257
C   47.591   27.588   29.578
C   48.344   30.071   27.042
C   48.434   29.535   30.459
O   48.998   30.601   30.542
C   47.897   28.648   31.597
C   48.908   28.319   32.638
O   50.035   27.920   32.510
O   48.445   28.504   33.901
C   49.296   28.462   35.085
C   43.915   27.081   38.500
C   44.006   25.670   39.117
C   43.958   25.359   40.452
C   43.621   26.374   41.521
C   43.902   23.898   40.873
C   42.486   23.379   41.167
C   42.287   23.043   42.727
C   40.806   22.802   43.033
C   40.206   21.623   42.195
C   39.898   24.094   43.095
C   39.084   24.218   44.409
C   39.813   24.973   45.532
C   40.012   23.981   46.667
C   38.729   23.496   47.364
C   40.976   24.587   47.765
C   42.029   23.571   48.164
C   43.445   24.150   48.391
C   44.640   23.391   47.647
C   46.008   23.934   48.212
C   44.517   23.608   46.053
H   45.508   22.150   31.816
H   46.942   21.553   25.620
H   47.944   27.896   25.326
H   47.307   26.217   33.756
H   45.251   24.340   33.541
H   47.890   24.300   34.502
H   47.912   23.167   33.232
H   46.788   22.897   34.528
H   44.385   26.390   33.551
H   45.261   27.919   33.061
H   45.322   28.423   35.137
H   46.442   27.180   35.539
H   43.828   19.565   29.915
H   44.534   20.379   31.388
H   45.381   19.052   30.510
H   44.828   18.361   28.438
H   46.496   17.646   28.535
H   45.392   17.318   27.113
H   46.731   23.453   23.903
H   48.562   25.708   23.915
H   49.398   22.748   24.708
H   49.758   23.824   23.305
H   48.688   22.430   23.192
H   46.094   25.327   22.585
H   46.841   26.879   22.991
H   45.171   25.833   25.230
H   44.336   25.896   23.661
H   45.010   27.363   24.266
H   47.628   30.310   26.255
H   49.328   30.026   26.576
H   48.413   30.894   27.753
H   47.031   29.136   32.045
H   49.366   29.308   35.768
H   50.335   28.301   34.798
H   48.949   27.577   35.618
H   42.857   27.187   38.263
H   44.104   27.928   39.160
H   44.432   24.878   38.501
H   43.549   27.387   41.124
H   44.382   26.273   42.296
H   42.596   26.369   41.892
H   44.429   23.911   41.828
H   44.378   23.254   40.132
H   42.293   22.475   40.589
H   41.710   24.034   40.772
H   42.711   23.861   43.309
H   42.897   22.256   43.171
H   40.687   22.401   44.039
H   41.016   20.999   41.819
H   39.687   22.030   41.327
H   39.522   20.960   42.726
H   39.143   24.109   42.310
H   40.535   24.963   42.923
H   38.659   23.249   44.669
H   38.175   24.752   44.129
H   39.282   25.848   45.906
H   40.833   25.302   45.333
H   40.465   23.129   46.161
H   38.383   22.538   46.976
H   37.980   24.288   47.343
H   38.947   23.259   48.405
H   40.362   24.843   48.628
H   41.405   25.556   47.507
H   41.954   22.715   47.495
H   41.646   23.246   49.131
H   43.755   24.007   49.426
H   43.519   25.208   48.140
H   44.432   22.331   47.797
H   46.743   23.950   47.407
H   46.404   23.377   49.060
H   45.902   24.970   48.534
H   45.275   24.275   45.642
H   43.544   23.892   45.652
H   44.585   22.620   45.598
