140
37
Mg   1.402   8.460   25.094
C   2.473   10.429   27.951
C   1.691   5.742   27.036
C   0.422   6.720   22.396
C   1.679   11.337   23.088
N   1.905   8.111   27.341
C   2.326   9.072   28.278
C   2.242   8.395   29.684
C   2.328   6.864   29.308
C   2.034   6.899   27.785
C   3.589   6.034   29.679
C   0.976   8.762   30.432
C   1.023   8.844   31.970
C   2.086   7.993   32.781
O   3.192   8.391   33.070
O   1.626   6.719   33.066
N   0.954   6.431   24.781
C   1.140   5.441   25.743
C   0.650   4.267   25.164
C   0.315   4.516   23.863
C   0.526   5.940   23.609
C   0.756   2.957   25.811
C   -0.143   3.599   22.693
O   -0.339   3.991   21.591
C   -0.319   2.131   22.944
N   1.280   8.989   23.074
C   0.821   8.055   22.152
C   0.955   8.566   20.730
C   1.058   10.166   21.031
C   1.474   10.127   22.495
C   2.138   8.067   19.834
C   -0.337   10.822   20.685
C   -0.189   12.216   19.985
N   1.965   10.500   25.421
C   1.979   11.530   24.480
C   2.367   12.745   25.151
C   2.414   12.406   26.569
C   2.203   11.003   26.666
C   2.666   14.058   24.537
C   2.724   12.897   27.887
O   3.017   13.995   28.339
C   2.758   11.590   28.824
C   4.009   11.378   29.560
O   4.971   10.735   29.267
O   3.830   11.921   30.762
C   4.945   11.578   31.694
C   2.382   5.619   33.698
C   1.519   4.994   34.786
C   1.721   4.999   36.111
C   2.708   5.938   36.780
C   0.757   4.187   36.996
C   0.885   2.657   36.811
C   -0.344   1.929   36.166
C   -0.790   0.708   37.117
C   -2.245   0.551   37.086
C   -0.050   -0.592   36.823
C   0.340   -1.263   38.116
C   1.879   -1.395   38.307
C   2.415   -2.882   38.243
C   3.557   -3.165   39.221
C   2.846   -3.336   36.853
C   2.430   -4.786   36.540
C   2.995   -5.183   35.065
C   1.949   -5.458   33.956
C   1.499   -6.896   34.019
C   2.513   -4.976   32.594
H   1.697   4.890   27.719
H   0.108   6.230   21.472
H   1.774   12.270   22.529
H   3.039   8.833   30.286
H   1.537   6.250   29.741
H   4.036   6.648   30.461
H   4.233   5.779   28.837
H   3.178   5.126   30.119
H   0.220   8.064   30.072
H   0.721   9.707   29.952
H   0.043   8.744   32.437
H   1.264   9.868   32.256
H   -0.236   2.583   26.062
H   1.319   2.930   26.744
H   1.379   2.209   25.321
H   -0.893   2.014   23.863
H   0.677   1.699   23.039
H   -0.744   1.647   22.065
H   0.073   8.293   20.151
H   1.856   10.637   20.457
H   2.782   7.317   20.293
H   2.765   8.841   19.391
H   1.597   7.551   19.041
H   -0.815   10.945   21.657
H   -0.987   10.144   20.132
H   -0.917   12.296   19.178
H   0.734   12.518   19.488
H   -0.460   12.994   20.698
H   2.041   14.107   23.645
H   3.746   14.135   24.407
H   2.405   14.856   25.232
H   1.946   11.682   29.546
H   5.007   10.515   31.924
H   4.700   12.103   32.618
H   5.892   11.889   31.253
H   3.370   5.957   34.013
H   2.550   4.820   32.977
H   0.736   4.389   34.328
H   3.474   5.311   37.237
H   2.209   6.501   37.568
H   3.114   6.649   36.061
H   -0.271   4.490   36.800
H   0.830   4.404   38.061
H   1.130   2.227   37.782
H   1.786   2.501   36.217
H   -0.008   1.527   35.211
H   -1.164   2.595   35.899
H   -0.586   1.069   38.125
H   -2.621   0.934   36.137
H   -2.758   1.041   37.914
H   -2.592   -0.481   37.144
H   0.790   -0.310   36.189
H   -0.720   -1.238   36.254
H   -0.130   -2.245   38.171
H   -0.069   -0.793   39.010
H   2.108   -1.028   39.308
H   2.444   -0.677   37.713
H   1.673   -3.548   38.685
H   4.080   -4.057   38.878
H   3.242   -3.429   40.231
H   4.249   -2.325   39.287
H   3.936   -3.371   36.849
H   2.602   -2.734   35.978
H   1.344   -4.720   36.609
H   2.916   -5.487   37.219
H   3.646   -6.055   35.129
H   3.671   -4.393   34.739
H   1.078   -4.868   34.239
H   0.659   -7.071   33.348
H   1.013   -7.099   34.973
H   2.274   -7.622   33.773
H   2.324   -5.650   31.758
H   3.569   -4.731   32.483
H   2.026   -4.057   32.266
