140
7
Mg   -9.441   18.396   43.045
C   -5.930   18.106   43.102
C   -8.990   21.733   42.115
C   -12.750   18.561   42.307
C   -9.753   14.896   43.229
N   -7.680   19.750   42.660
C   -6.294   19.435   42.847
C   -5.405   20.569   42.543
C   -6.406   21.811   42.451
C   -7.737   21.071   42.361
C   -6.395   22.935   43.518
C   -4.577   20.390   41.143
C   -5.332   19.888   39.847
C   -4.741   20.074   38.471
O   -3.577   19.825   38.198
O   -5.560   20.661   37.547
N   -10.682   19.986   42.328
C   -10.330   21.218   41.972
C   -11.482   21.964   41.707
C   -12.572   21.113   41.574
C   -12.030   19.802   42.032
C   -11.476   23.389   41.454
C   -13.986   21.413   41.169
O   -14.259   22.594   40.870
C   -15.073   20.390   40.863
N   -10.999   16.828   42.738
C   -12.269   17.243   42.672
C   -13.226   16.100   42.797
C   -12.321   14.919   43.232
C   -10.912   15.568   43.121
C   -14.467   16.339   43.597
C   -12.512   13.601   42.458
C   -12.910   12.390   43.198
N   -8.230   16.871   43.209
C   -8.436   15.499   43.295
C   -7.107   14.881   43.512
C   -6.183   15.899   43.479
C   -6.861   17.083   43.217
C   -6.880   13.440   43.554
C   -4.751   16.117   43.550
O   -3.814   15.279   43.607
C   -4.560   17.582   43.248
C   -3.832   18.127   44.412
O   -2.662   18.449   44.475
O   -4.703   18.366   45.494
C   -4.141   19.162   46.597
C   -5.074   21.295   36.363
C   -5.927   21.030   35.207
C   -6.382   19.841   34.655
C   -5.929   18.487   35.204
C   -7.199   19.911   33.426
C   -8.571   19.004   33.389
C   -9.421   19.301   32.179
C   -10.347   20.478   32.366
C   -11.685   20.070   32.993
C   -10.464   21.286   31.015
C   -10.243   22.844   31.234
C   -9.530   23.523   30.049
C   -10.571   24.399   29.226
C   -10.595   25.835   29.796
C   -10.361   24.377   27.682
C   -11.586   24.061   26.842
C   -12.590   25.288   26.549
C   -12.814   25.581   25.064
C   -13.179   26.968   24.649
C   -13.827   24.611   24.520
H   -8.941   22.812   41.949
H   -13.803   18.764   42.100
H   -9.795   13.825   43.441
H   -4.744   20.671   43.404
H   -6.246   22.322   41.502
H   -6.386   23.922   43.056
H   -5.681   22.690   44.305
H   -7.273   22.935   44.163
H   -3.858   19.590   41.322
H   -3.822   21.147   40.935
H   -6.341   20.292   39.927
H   -5.465   18.806   39.851
H   -11.813   23.471   40.421
H   -10.631   24.031   41.705
H   -12.165   23.879   42.141
H   -15.430   19.922   41.780
H   -14.709   19.656   40.145
H   -15.856   20.953   40.355
H   -13.555   15.925   41.772
H   -12.469   14.705   44.290
H   -15.401   16.237   43.044
H   -14.418   17.368   43.955
H   -14.504   15.786   44.535
H   -11.500   13.304   42.182
H   -13.240   13.595   41.647
H   -13.707   11.867   42.670
H   -13.252   12.705   44.184
H   -12.160   11.628   43.410
H   -6.372   13.336   42.595
H   -7.777   12.833   43.675
H   -6.274   13.343   44.455
H   -3.918   17.705   42.376
H   -3.407   18.539   47.108
H   -4.957   19.288   47.308
H   -3.703   20.100   46.257
H   -4.012   21.076   36.248
H   -5.108   22.379   36.472
H   -6.319   21.969   34.817
H   -5.335   18.589   36.112
H   -5.600   17.843   34.388
H   -6.827   18.117   35.698
H   -6.589   19.809   32.528
H   -7.504   20.935   33.208
H   -9.035   19.277   34.336
H   -8.302   17.982   33.657
H   -10.045   18.424   32.011
H   -8.754   19.479   31.335
H   -9.734   20.995   33.104
H   -11.539   19.017   33.234
H   -12.365   19.903   32.157
H   -12.142   20.663   33.785
H   -11.485   21.268   30.635
H   -9.814   20.868   30.247
H   -9.550   23.031   32.054
H   -11.201   23.312   31.460
H   -9.134   22.788   29.347
H   -8.749   24.206   30.383
H   -11.556   23.970   29.408
H   -11.126   25.950   30.741
H   -10.963   26.559   29.069
H   -9.581   26.190   29.979
H   -9.610   23.604   27.519
H   -9.960   25.332   27.342
H   -12.151   23.395   27.495
H   -11.333   23.529   25.926
H   -12.239   26.155   27.108
H   -13.555   24.928   26.905
H   -11.897   25.372   24.514
H   -13.346   27.576   25.539
H   -14.071   27.092   24.036
H   -12.599   27.549   23.933
H   -13.794   23.691   25.104
H   -13.482   24.371   23.514
H   -14.872   24.919   24.504
