140
14
Mg   25.311   -0.017   29.033
C   27.258   0.015   32.043
C   22.574   0.110   30.997
C   23.715   0.009   26.195
C   28.386   -0.669   27.228
N   24.971   -0.215   31.370
C   25.838   0.083   32.353
C   25.150   0.048   33.665
C   23.687   0.184   33.288
C   23.712   -0.018   31.762
C   22.698   -0.805   34.027
C   25.745   1.123   34.685
C   24.903   1.150   35.934
C   25.489   1.695   37.274
O   25.968   2.786   37.428
O   25.348   0.812   38.326
N   23.413   0.112   28.592
C   22.347   0.126   29.544
C   21.108   0.145   28.747
C   21.446   0.184   27.340
C   22.942   0.152   27.326
C   19.746   0.285   29.472
C   20.554   0.383   26.160
O   21.039   0.427   25.019
C   19.145   0.516   26.385
N   25.954   -0.407   27.048
C   25.065   -0.139   26.040
C   25.786   0.068   24.676
C   27.301   -0.128   25.002
C   27.257   -0.340   26.513
C   25.235   -1.007   23.565
C   28.237   0.968   24.660
C   29.612   0.637   24.001
N   27.366   -0.210   29.460
C   28.453   -0.538   28.645
C   29.684   -0.684   29.498
C   29.256   -0.408   30.866
C   27.795   -0.183   30.754
C   31.101   -1.075   29.069
C   29.644   -0.354   32.256
O   30.696   -0.543   32.841
C   28.379   -0.071   33.105
C   28.256   -1.185   34.070
O   27.687   -2.235   33.880
O   28.808   -0.880   35.279
C   28.505   -1.806   36.384
C   26.092   1.169   39.531
C   25.078   1.679   40.558
C   25.497   2.123   41.810
C   26.907   2.172   42.295
C   24.434   2.605   42.700
C   24.083   1.671   43.976
C   22.592   1.426   44.051
C   22.107   1.474   45.499
C   20.824   0.704   45.572
C   22.083   2.882   46.200
C   23.217   2.908   47.288
C   22.718   3.464   48.615
C   23.017   5.002   48.790
C   23.342   5.449   50.242
C   21.869   5.843   48.143
C   22.350   7.151   47.448
C   22.873   6.791   45.949
C   21.804   6.929   44.780
C   22.260   6.172   43.512
C   21.413   8.450   44.571
H   21.609   0.177   31.504
H   23.153   -0.235   25.291
H   29.286   -0.845   26.636
H   25.365   -0.946   34.057
H   23.324   1.187   33.513
H   22.330   -1.601   33.379
H   21.902   -0.316   34.589
H   23.231   -1.434   34.741
H   25.614   2.106   34.232
H   26.793   0.945   34.928
H   24.576   0.119   36.064
H   24.016   1.750   35.726
H   19.839   -0.183   30.451
H   18.946   -0.180   28.895
H   19.478   1.341   29.441
H   18.897   1.166   27.224
H   18.828   -0.480   26.694
H   18.584   0.791   25.492
H   25.449   1.083   24.465
H   27.491   -1.079   24.504
H   24.363   -1.530   23.958
H   25.923   -1.784   23.232
H   25.019   -0.441   22.658
H   28.368   1.581   25.551
H   27.700   1.585   23.940
H   29.781   -0.434   23.890
H   30.388   0.949   24.699
H   29.684   1.118   23.025
H   31.738   -0.223   29.307
H   31.144   -1.261   27.996
H   31.476   -1.950   29.599
H   28.494   0.869   33.645
H   27.559   -1.349   36.675
H   29.207   -1.759   37.216
H   28.280   -2.826   36.075
H   26.773   2.004   39.368
H   26.642   0.373   40.034
H   24.048   1.777   40.216
H   27.299   1.410   42.968
H   27.091   3.109   42.821
H   27.545   2.257   41.415
H   23.559   2.794   42.077
H   24.762   3.563   43.104
H   24.436   2.004   44.952
H   24.444   0.647   43.877
H   22.365   0.519   43.490
H   22.047   2.226   43.549
H   22.844   0.853   46.008
H   20.561   0.073   44.724
H   20.048   1.355   45.976
H   20.890   -0.065   46.341
H   21.126   3.152   46.647
H   22.239   3.637   45.429
H   23.908   3.579   46.778
H   23.729   1.986   47.562
H   23.144   2.795   49.364
H   21.662   3.254   48.787
H   23.882   5.242   48.171
H   24.380   5.768   50.338
H   23.217   4.608   50.923
H   22.823   6.350   50.570
H   21.137   6.087   48.913
H   21.361   5.252   47.381
H   23.144   7.508   48.104
H   21.521   7.858   47.427
H   23.163   5.744   46.041
H   23.781   7.358   45.743
H   20.898   6.407   45.087
H   22.663   6.845   42.756
H   21.404   5.634   43.105
H   23.070   5.473   43.721
H   20.970   8.475   43.575
H   22.287   9.079   44.743
H   20.624   8.812   45.229
