140
8
Mg   -9.802   18.929   42.519
C   -6.351   18.125   42.646
C   -8.931   22.128   41.702
C   -13.003   19.411   42.141
C   -10.417   15.368   42.701
N   -7.855   19.961   42.182
C   -6.631   19.452   42.360
C   -5.574   20.548   42.234
C   -6.444   21.890   42.024
C   -7.841   21.312   41.921
C   -6.071   23.132   42.945
C   -4.593   20.345   41.020
C   -5.243   19.949   39.664
C   -4.512   19.951   38.365
O   -3.904   20.905   37.879
O   -4.699   18.740   37.676
N   -10.856   20.584   42.052
C   -10.313   21.794   41.715
C   -11.426   22.759   41.534
C   -12.653   22.009   41.669
C   -12.235   20.648   42.003
C   -11.194   24.184   41.220
C   -14.051   22.544   41.570
O   -14.235   23.706   41.289
C   -15.195   21.680   41.823
N   -11.470   17.518   42.551
C   -12.713   18.115   42.440
C   -13.797   17.046   42.625
C   -12.994   15.723   42.526
C   -11.562   16.129   42.619
C   -14.791   17.254   43.803
C   -13.242   14.882   41.261
C   -12.597   13.490   41.200
N   -8.716   17.065   42.709
C   -9.081   15.765   42.708
C   -7.888   14.891   42.763
C   -6.814   15.775   42.849
C   -7.359   17.115   42.670
C   -7.884   13.347   42.702
C   -5.434   15.878   42.937
O   -4.577   15.001   43.056
C   -5.045   17.373   42.796
C   -4.301   17.840   44.005
O   -3.249   18.479   43.981
O   -5.058   17.589   45.117
C   -4.784   18.136   46.462
C   -4.177   18.671   36.322
C   -5.220   19.187   35.361
C   -6.115   18.555   34.567
C   -6.383   17.041   34.599
C   -6.923   19.281   33.502
C   -8.355   19.798   33.893
C   -9.377   19.393   32.841
C   -10.289   20.508   32.438
C   -11.701   20.066   31.942
C   -9.578   21.378   31.409
C   -9.843   22.886   31.604
C   -9.556   23.681   30.311
C   -10.769   24.614   29.885
C   -10.429   26.042   30.351
C   -11.135   24.482   28.386
C   -12.253   23.374   28.128
C   -13.685   23.678   28.527
C   -14.214   22.744   29.690
C   -15.336   21.841   29.157
C   -14.580   23.652   30.877
H   -8.538   23.144   41.625
H   -14.079   19.458   41.960
H   -10.594   14.292   42.756
H   -4.932   20.545   43.114
H   -6.358   22.285   41.012
H   -5.249   22.841   43.598
H   -6.884   23.419   43.612
H   -5.685   23.961   42.351
H   -3.806   19.640   41.289
H   -4.075   21.274   40.781
H   -6.151   20.549   39.618
H   -5.581   18.928   39.843
H   -11.522   24.276   40.185
H   -10.164   24.534   41.162
H   -11.866   24.744   41.871
H   -15.040   21.183   42.781
H   -15.465   20.968   41.043
H   -16.080   22.315   41.806
H   -14.412   17.042   41.726
H   -13.188   15.096   43.396
H   -14.909   16.348   44.397
H   -15.796   17.413   43.413
H   -14.421   18.120   44.352
H   -12.891   15.430   40.387
H   -14.305   14.745   41.065
H   -11.765   13.356   40.509
H   -13.398   12.763   41.068
H   -12.263   13.198   42.196
H   -8.330   12.892   43.587
H   -6.870   12.958   42.615
H   -8.467   12.905   41.894
H   -4.489   17.614   41.890
H   -4.398   17.349   47.111
H   -5.697   18.554   46.886
H   -3.989   18.882   46.455
H   -3.895   17.622   36.233
H   -3.309   19.330   36.323
H   -5.058   20.203   35.001
H   -5.915   16.640   33.700
H   -7.455   16.845   34.569
H   -5.868   16.635   35.470
H   -6.980   18.451   32.798
H   -6.404   20.065   32.949
H   -8.273   20.884   33.919
H   -8.700   19.314   34.807
H   -9.954   18.554   33.229
H   -8.963   18.915   31.954
H   -10.632   21.048   33.321
H   -11.772   18.991   32.108
H   -11.837   20.184   30.867
H   -12.407   20.617   32.564
H   -9.926   21.218   30.388
H   -8.554   21.037   31.262
H   -9.126   23.060   32.406
H   -10.835   22.952   32.049
H   -9.291   23.011   29.493
H   -8.662   24.272   30.510
H   -11.714   24.384   30.379
H   -9.422   26.108   30.762
H   -11.126   26.233   31.167
H   -10.708   26.813   29.633
H   -10.196   24.234   27.891
H   -11.449   25.464   28.031
H   -11.923   22.476   28.649
H   -12.168   23.196   27.056
H   -14.310   23.504   27.652
H   -13.905   24.658   28.951
H   -13.535   22.074   30.217
H   -15.070   20.785   29.109
H   -15.501   21.977   28.088
H   -16.206   22.011   29.791
H   -15.460   24.288   30.781
H   -13.715   24.188   31.268
H   -15.032   22.935   31.562
