140
9
Mg   46.504   24.866   28.215
C   47.357   27.100   30.885
C   46.065   22.352   30.356
C   46.563   22.794   25.532
C   47.591   27.529   26.079
N   46.721   24.755   30.302
C   46.789   25.817   31.210
C   46.398   25.447   32.625
C   46.182   23.899   32.421
C   46.248   23.647   30.930
C   47.128   22.965   33.245
C   45.112   26.210   33.181
C   45.402   27.001   34.479
C   44.546   26.821   35.709
O   43.379   26.498   35.704
O   45.213   26.981   36.887
N   46.247   22.850   27.919
C   46.074   21.962   28.983
C   46.051   20.587   28.420
C   46.306   20.674   26.981
C   46.407   22.161   26.743
C   45.792   19.361   29.372
C   46.444   19.624   25.909
O   46.822   19.780   24.742
C   46.259   18.199   26.460
N   46.859   25.180   26.111
C   46.638   24.181   25.221
C   47.132   24.617   23.877
C   47.039   26.173   24.004
C   47.266   26.318   25.501
C   48.580   24.141   23.482
C   45.739   26.810   23.506
C   44.390   26.389   24.084
N   47.363   26.882   28.365
C   47.731   27.800   27.436
C   48.189   29.001   28.068
C   48.011   28.824   29.471
C   47.565   27.449   29.612
C   48.608   30.271   27.421
C   48.186   29.333   30.788
O   48.563   30.442   31.249
C   47.795   28.224   31.769
C   48.896   27.959   32.756
O   49.954   27.506   32.464
O   48.464   28.435   33.996
C   49.382   28.124   35.131
C   44.495   26.978   38.121
C   44.675   25.695   38.886
C   44.083   25.427   40.057
C   43.174   26.388   40.806
C   44.371   24.148   40.740
C   43.070   23.268   40.884
C   42.952   22.943   42.441
C   41.401   22.777   42.813
C   40.628   21.681   41.939
C   40.658   24.161   42.730
C   39.529   24.236   43.813
C   40.026   24.955   45.163
C   39.856   24.042   46.404
C   38.485   24.285   47.142
C   41.015   24.397   47.404
C   41.994   23.213   47.595
C   43.381   23.675   48.093
C   44.489   22.900   47.348
C   45.745   22.809   48.191
C   44.836   23.537   45.999
H   45.860   21.575   31.096
H   46.535   22.211   24.610
H   47.865   28.374   25.444
H   47.247   25.495   33.307
H   45.126   23.693   32.595
H   46.525   22.391   33.950
H   48.037   23.448   33.603
H   47.603   22.206   32.623
H   44.385   25.431   33.410
H   44.718   26.835   32.381
H   45.368   28.075   34.297
H   46.423   26.744   34.759
H   45.001   18.749   28.938
H   45.503   19.790   30.332
H   46.680   18.741   29.488
H   47.098   18.020   27.133
H   46.349   17.387   25.738
H   45.301   18.128   26.975
H   46.495   24.425   23.013
H   47.870   26.602   23.442
H   48.953   23.567   24.330
H   49.365   24.896   23.433
H   48.500   23.578   22.552
H   45.727   26.505   22.460
H   45.765   27.898   23.443
H   43.957   27.278   24.544
H   44.558   25.530   24.734
H   43.758   26.111   23.241
H   49.570   30.538   27.859
H   47.876   31.072   27.517
H   48.889   30.055   26.390
H   46.848   28.452   32.257
H   50.428   27.958   34.875
H   49.148   27.119   35.482
H   49.190   28.747   36.006
H   43.426   27.187   38.151
H   45.012   27.847   38.527
H   45.219   24.892   38.389
H   43.135   27.426   40.475
H   43.364   26.497   41.874
H   42.158   26.024   40.656
H   44.704   24.408   41.745
H   45.163   23.584   40.248
H   43.377   22.290   40.512
H   42.191   23.650   40.366
H   43.272   23.835   42.980
H   43.374   21.961   42.654
H   41.348   22.354   43.816
H   40.626   22.044   40.911
H   39.605   21.448   42.233
H   41.084   20.692   41.992
H   40.055   24.241   41.825
H   41.365   24.986   42.804
H   39.275   23.201   44.041
H   38.662   24.722   43.364
H   39.414   25.852   45.258
H   41.047   25.318   45.039
H   39.747   22.969   46.251
H   38.120   23.343   47.549
H   37.717   24.549   46.414
H   38.429   25.191   47.746
H   40.597   24.686   48.368
H   41.579   25.268   47.071
H   41.968   22.635   46.671
H   41.610   22.427   48.246
H   43.416   23.450   49.159
H   43.455   24.740   47.871
H   44.166   21.903   47.049
H   45.970   21.742   48.206
H   45.498   22.942   49.245
H   46.645   23.332   47.867
H   43.992   24.054   45.543
H   45.017   22.796   45.220
H   45.755   24.111   45.883
