140
16
Mg   8.749   47.441   24.733
C   6.486   47.885   27.366
C   11.217   48.548   26.771
C   10.964   46.468   22.309
C   6.087   46.968   22.645
N   8.828   48.105   26.796
C   7.838   48.184   27.733
C   8.379   48.485   29.148
C   9.726   49.096   28.764
C   9.974   48.522   27.380
C   9.831   50.594   28.599
C   8.529   47.203   30.070
C   9.131   47.407   31.462
C   8.792   46.572   32.753
O   8.287   45.465   32.798
O   9.032   47.324   33.862
N   10.792   47.513   24.583
C   11.646   47.988   25.536
C   13.018   47.752   25.069
C   12.947   47.143   23.754
C   11.516   47.012   23.494
C   14.288   48.110   25.798
C   14.048   46.847   22.726
O   13.797   46.309   21.683
C   15.393   47.298   22.919
N   8.589   46.892   22.688
C   9.600   46.495   21.899
C   9.040   46.073   20.561
C   7.493   46.281   20.650
C   7.361   46.634   22.099
C   9.672   46.707   19.327
C   6.499   45.123   20.199
C   5.374   45.491   19.188
N   6.692   47.641   24.875
C   5.770   47.347   23.943
C   4.508   47.410   24.583
C   4.711   47.560   25.921
C   6.063   47.709   26.050
C   3.192   47.336   23.994
C   4.057   47.614   27.230
O   2.912   47.467   27.642
C   5.207   47.847   28.255
C   5.194   46.657   29.126
O   5.618   45.564   28.883
O   4.674   47.020   30.304
C   4.575   46.102   31.404
C   8.744   46.696   35.120
C   9.397   47.449   36.274
C   9.305   47.291   37.644
C   8.373   46.331   38.352
C   9.907   48.355   38.530
C   11.061   47.791   39.366
C   11.239   48.400   40.798
C   10.968   47.339   41.903
C   10.577   48.012   43.228
C   12.089   46.307   42.080
C   11.721   44.848   41.622
C   12.904   44.102   40.846
C   13.722   43.082   41.838
C   14.294   41.819   41.111
C   14.678   43.902   42.825
C   14.462   43.492   44.308
C   14.110   44.705   45.275
C   12.683   44.629   45.966
C   12.620   45.769   47.010
C   12.399   43.235   46.569
H   12.014   48.857   27.451
H   11.555   46.023   21.506
H   5.234   46.772   21.992
H   7.718   49.179   29.668
H   10.444   48.750   29.508
H   10.397   51.062   29.405
H   8.808   50.970   28.574
H   10.403   50.935   27.736
H   9.297   46.635   29.544
H   7.603   46.631   30.129
H   9.136   48.469   31.707
H   10.209   47.251   31.503
H   14.978   48.869   25.430
H   14.926   47.227   25.807
H   14.024   48.403   26.814
H   15.474   48.302   23.334
H   15.816   47.457   21.928
H   15.911   46.546   23.515
H   9.285   45.011   20.553
H   7.133   47.202   20.192
H   10.631   47.100   19.663
H   9.064   47.543   18.981
H   9.933   45.964   18.573
H   6.114   44.576   21.059
H   7.157   44.363   19.780
H   5.376   46.561   19.395
H   4.385   45.064   19.357
H   5.661   45.328   18.149
H   2.679   46.601   24.614
H   3.160   47.023   22.950
H   2.769   48.325   24.170
H   5.038   48.643   28.980
H   4.407   46.691   32.306
H   5.525   45.584   31.533
H   3.688   45.472   31.339
H   9.034   45.649   35.205
H   7.680   46.735   35.354
H   10.099   48.234   35.994
H   7.481   46.702   38.858
H   9.028   45.794   39.038
H   7.942   45.670   37.600
H   9.154   48.909   39.091
H   10.386   49.085   37.878
H   11.988   47.992   38.829
H   11.108   46.702   39.405
H   10.617   49.261   41.040
H   12.285   48.706   40.818
H   10.124   46.783   41.497
H   11.278   47.835   44.044
H   9.669   47.507   43.557
H   10.283   49.053   43.098
H   12.466   46.324   43.102
H   12.944   46.697   41.528
H   10.775   44.755   41.088
H   11.704   44.348   42.590
H   13.566   44.909   40.532
H   12.626   43.714   39.866
H   12.906   42.596   42.373
H   15.370   41.678   41.216
H   14.026   42.054   40.081
H   13.674   40.943   41.301
H   14.536   44.961   42.607
H   15.644   43.493   42.530
H   15.362   43.013   44.695
H   13.740   42.676   44.338
H   14.124   45.596   44.648
H   14.876   44.788   46.046
H   11.978   44.769   45.147
H   11.887   45.511   47.775
H   12.232   46.652   46.502
H   13.569   45.906   47.527
H   11.761   42.664   45.896
H   11.819   43.280   47.491
H   13.313   42.664   46.733
