140
27
Mg   41.318   7.775   30.371
C   43.081   9.368   33.009
C   39.054   6.480   32.634
C   39.719   6.031   27.884
C   43.598   8.884   28.058
N   41.219   7.887   32.554
C   41.972   8.575   33.480
C   41.543   8.404   34.896
C   40.403   7.306   34.665
C   40.207   7.185   33.191
C   40.506   5.938   35.448
C   41.004   9.749   35.335
C   41.615   10.415   36.585
C   40.698   10.808   37.764
O   39.634   11.411   37.750
O   41.333   10.534   38.949
N   39.589   6.536   30.214
C   38.773   6.148   31.277
C   37.630   5.336   30.715
C   37.825   5.346   29.326
C   39.079   5.968   29.101
C   36.500   4.725   31.497
C   36.864   4.684   28.315
O   37.271   4.549   27.163
C   35.418   4.254   28.620
N   41.683   7.380   28.282
C   40.912   6.608   27.483
C   41.454   6.533   25.999
C   42.537   7.708   26.043
C   42.637   8.021   27.583
C   41.901   5.177   25.553
C   42.273   8.925   25.098
C   41.097   9.828   25.412
N   43.025   8.862   30.424
C   43.865   9.238   29.402
C   44.921   10.097   29.961
C   44.603   10.171   31.351
C   43.522   9.377   31.590
C   46.076   10.700   29.211
C   45.100   10.731   32.594
O   46.058   11.495   32.798
C   44.074   10.299   33.676
C   44.982   9.472   34.588
O   45.584   8.463   34.264
O   45.086   10.000   35.791
C   45.997   9.375   36.788
C   40.895   11.098   40.198
C   39.941   10.217   40.932
C   39.831   10.082   42.254
C   40.743   10.633   43.307
C   38.679   9.210   42.725
C   37.365   9.873   42.963
C   36.945   9.567   44.387
C   35.932   10.622   44.868
C   35.960   10.913   46.371
C   34.503   10.273   44.442
C   33.468   11.371   44.592
C   32.961   12.046   43.249
C   31.616   11.539   42.628
C   31.580   11.763   41.101
C   30.444   12.309   43.209
C   29.241   11.378   43.486
C   28.093   12.030   44.340
C   26.699   11.620   43.765
C   25.953   12.783   43.099
C   25.860   10.941   44.874
H   38.310   6.016   33.284
H   39.299   5.429   27.075
H   44.208   9.318   27.263
H   42.397   7.960   35.407
H   39.473   7.829   34.889
H   40.333   5.108   34.763
H   39.677   5.907   36.156
H   41.449   5.780   35.971
H   39.945   9.684   35.589
H   41.054   10.538   34.585
H   41.972   11.403   36.292
H   42.554   9.903   36.797
H   35.586   5.315   31.425
H   36.684   4.839   32.565
H   36.554   3.655   31.301
H   35.296   3.526   29.422
H   34.993   3.892   27.684
H   34.896   5.174   28.886
H   40.612   6.766   25.347
H   43.522   7.315   25.793
H   42.803   4.842   26.065
H   42.081   5.204   24.478
H   41.218   4.336   25.674
H   42.113   8.411   24.150
H   43.196   9.502   25.039
H   40.675   9.595   26.390
H   40.312   9.710   24.665
H   41.367   10.876   25.545
H   46.200   11.759   29.439
H   45.932   10.521   28.146
H   47.055   10.318   29.503
H   43.721   11.188   34.199
H   46.051   8.287   36.838
H   45.680   9.636   37.797
H   47.031   9.664   36.600
H   40.331   12.002   39.967
H   41.738   11.482   40.773
H   39.271   9.624   40.310
H   41.813   10.437   43.238
H   40.292   10.487   44.288
H   40.710   11.711   43.150
H   39.077   8.797   43.652
H   38.732   8.351   42.055
H   36.635   9.576   42.210
H   37.549   10.941   42.842
H   37.690   9.338   45.150
H   36.399   8.634   44.243
H   36.196   11.567   44.394
H   34.981   10.853   46.848
H   36.278   11.942   46.535
H   36.567   10.240   46.976
H   34.241   9.398   45.036
H   34.581   10.061   43.376
H   34.022   12.143   45.125
H   32.656   11.007   45.221
H   33.759   11.827   42.539
H   32.918   13.110   43.483
H   31.552   10.463   42.786
H   32.602   11.699   40.728
H   31.076   12.700   40.862
H   31.139   10.849   40.705
H   30.184   13.233   42.692
H   30.846   12.566   44.189
H   29.565   10.596   44.173
H   28.830   10.918   42.587
H   28.235   13.107   44.431
H   28.210   11.602   45.336
H   26.757   10.965   42.897
H   25.040   12.352   42.689
H   26.519   13.197   42.265
H   25.689   13.547   43.830
H   25.318   10.107   44.427
H   25.042   11.564   45.234
H   26.435   10.672   45.760
