140
17
Mg   8.985   47.757   24.565
C   6.919   47.969   27.339
C   11.615   48.683   26.423
C   10.890   47.352   21.697
C   6.091   47.503   22.593
N   9.233   48.240   26.688
C   8.259   48.242   27.683
C   8.937   48.567   29.004
C   10.282   49.297   28.537
C   10.411   48.747   27.095
C   10.139   50.913   28.657
C   9.257   47.321   29.979
C   9.308   47.667   31.517
C   8.599   46.859   32.541
O   8.125   45.738   32.389
O   8.704   47.463   33.792
N   10.895   47.985   24.155
C   11.887   48.316   25.071
C   13.203   48.131   24.518
C   12.976   47.823   23.140
C   11.534   47.744   22.916
C   14.475   48.484   25.305
C   13.974   47.699   22.037
O   13.659   47.489   20.846
C   15.417   47.731   22.338
N   8.537   47.603   22.377
C   9.542   47.242   21.521
C   8.898   46.413   20.415
C   7.370   46.733   20.470
C   7.290   47.345   21.868
C   9.459   46.762   18.995
C   6.447   45.540   20.346
C   5.234   45.615   19.404
N   6.945   47.829   24.846
C   5.929   47.689   23.974
C   4.737   47.578   24.700
C   5.056   47.680   26.073
C   6.441   47.777   26.065
C   3.389   47.361   24.196
C   4.502   47.790   27.474
O   3.381   47.678   27.859
C   5.735   47.928   28.330
C   5.677   46.789   29.194
O   6.099   45.698   29.022
O   4.978   47.079   30.322
C   4.634   45.928   31.184
C   8.179   46.668   34.936
C   9.262   46.975   35.991
C   9.459   46.359   37.233
C   8.562   45.312   37.822
C   10.744   46.770   38.030
C   10.417   47.954   39.002
C   11.252   47.731   40.284
C   10.366   47.058   41.409
C   9.607   48.107   42.190
C   11.352   46.245   42.372
C   11.557   44.789   42.024
C   13.064   44.548   41.640
C   13.424   43.061   41.365
C   13.369   42.775   39.857
C   14.759   42.632   42.004
C   14.545   41.463   42.868
C   14.572   41.818   44.332
C   13.574   41.004   45.176
C   12.209   41.715   45.116
C   14.195   40.667   46.491
H   12.431   48.914   27.111
H   11.441   46.702   21.014
H   5.195   47.224   22.035
H   8.301   49.261   29.554
H   11.140   48.982   29.130
H   10.886   51.266   29.367
H   9.188   51.257   29.063
H   10.283   51.375   27.680
H   10.245   47.040   29.614
H   8.624   46.468   29.735
H   8.987   48.701   31.648
H   10.357   47.770   31.796
H   14.348   48.554   26.385
H   14.882   49.423   24.930
H   15.189   47.661   25.288
H   15.532   46.873   23.000
H   15.447   48.744   22.738
H   15.899   47.574   21.373
H   9.084   45.347   20.545
H   6.960   47.584   19.925
H   10.244   47.518   18.981
H   8.745   47.290   18.362
H   9.910   45.874   18.552
H   6.093   45.149   21.300
H   7.076   44.712   20.019
H   5.227   44.745   18.748
H   5.337   46.410   18.665
H   4.313   45.714   19.980
H   3.338   46.500   23.529
H   2.994   48.235   23.678
H   2.678   47.072   24.971
H   5.705   48.890   28.842
H   4.225   45.195   30.489
H   3.873   46.345   31.843
H   5.544   45.619   31.697
H   8.112   45.594   34.764
H   7.236   47.076   35.300
H   9.998   47.740   35.745
H   7.846   44.893   37.115
H   7.979   45.959   38.478
H   9.030   44.587   38.488
H   11.638   47.189   37.569
H   11.085   45.898   38.587
H   9.343   48.059   39.159
H   10.656   48.913   38.543
H   11.553   48.738   40.572
H   12.082   47.061   40.058
H   9.617   46.351   41.054
H   9.507   48.979   41.544
H   10.178   48.506   43.029
H   8.663   47.710   42.564
H   10.966   46.312   43.389
H   12.304   46.751   42.535
H   10.798   44.270   41.439
H   11.333   44.328   42.986
H   13.674   44.800   42.508
H   13.281   45.186   40.784
H   12.582   42.446   41.682
H   12.706   43.530   39.432
H   13.088   41.739   39.669
H   14.351   42.983   39.432
H   15.259   43.410   42.582
H   15.529   42.475   41.248
H   15.340   40.798   42.532
H   13.734   40.857   42.463
H   14.271   42.857   44.467
H   15.591   41.738   44.711
H   13.479   40.036   44.683
H   12.118   42.417   45.945
H   11.453   40.931   45.174
H   12.242   42.242   44.162
H   14.434   41.572   47.050
H   15.041   40.022   46.256
H   13.461   40.060   47.021
