140
22
Mg   3.489   0.699   44.223
C   6.429   2.769   43.972
C   1.734   3.313   42.794
C   0.845   -1.349   43.949
C   5.477   -1.836   45.381
N   4.042   2.732   43.487
C   5.279   3.311   43.405
C   5.254   4.740   42.782
C   3.670   5.007   42.797
C   3.068   3.588   43.047
C   3.077   6.033   43.869
C   5.962   4.998   41.433
C   6.428   3.793   40.588
C   6.477   3.893   39.069
O   6.290   4.915   38.404
O   6.722   2.614   38.436
N   1.553   0.936   43.382
C   1.061   2.136   42.926
C   -0.316   1.836   42.535
C   -0.633   0.534   42.814
C   0.623   -0.037   43.376
C   -1.259   2.928   41.985
C   -1.959   -0.142   42.606
O   -2.936   0.494   42.165
C   -2.171   -1.569   42.900
N   3.189   -1.326   44.501
C   1.975   -1.922   44.536
C   2.114   -3.444   44.879
C   3.593   -3.479   45.512
C   4.153   -2.199   44.951
C   1.013   -4.178   45.757
C   4.403   -4.750   45.158
C   4.398   -5.898   46.152
N   5.465   0.473   44.745
C   6.130   -0.614   45.252
C   7.497   -0.183   45.574
C   7.658   1.144   45.131
C   6.409   1.478   44.581
C   8.509   -1.060   46.208
C   8.603   2.213   44.984
O   9.750   2.292   45.371
C   7.774   3.335   44.212
C   7.885   4.576   44.987
O   8.868   5.337   44.883
O   6.747   4.807   45.756
C   6.638   6.109   46.444
C   6.637   2.580   36.958
C   5.306   2.089   36.343
C   5.107   1.378   35.227
C   6.170   1.050   34.194
C   3.705   0.905   34.791
C   2.868   2.015   34.060
C   2.395   1.647   32.600
C   0.888   1.438   32.591
C   0.451   0.211   31.848
C   0.236   2.664   31.833
C   -0.438   3.726   32.696
C   -1.812   4.266   31.986
C   -1.567   4.569   30.496
C   -2.045   6.032   30.220
C   -2.328   3.561   29.528
C   -1.481   2.998   28.298
C   -1.638   3.679   26.917
C   -2.319   2.831   25.883
C   -1.666   3.165   24.536
C   -3.842   3.090   25.814
H   1.161   4.174   42.443
H   -0.052   -1.935   44.161
H   6.216   -2.575   45.697
H   5.762   5.430   43.458
H   3.335   5.400   41.838
H   2.309   6.630   43.378
H   3.830   6.742   44.213
H   2.609   5.592   44.749
H   6.739   5.642   41.844
H   5.427   5.674   40.765
H   5.762   2.965   40.830
H   7.385   3.416   40.948
H   -2.121   2.638   41.384
H   -0.658   3.702   41.507
H   -1.833   3.359   42.805
H   -1.995   -1.754   43.960
H   -1.545   -2.236   42.306
H   -3.152   -1.960   42.631
H   2.166   -3.983   43.932
H   3.615   -3.285   46.584
H   0.555   -4.952   45.142
H   0.255   -3.445   46.032
H   1.606   -4.583   46.577
H   5.431   -4.514   44.882
H   3.979   -5.143   44.234
H   4.057   -6.812   45.666
H   3.703   -5.684   46.964
H   5.381   -6.064   46.592
H   8.413   -1.019   47.293
H   9.454   -0.530   46.087
H   8.601   -2.038   45.736
H   8.372   3.404   43.304
H   5.600   6.419   46.325
H   7.243   6.896   45.993
H   6.975   5.849   47.447
H   7.512   2.033   36.606
H   7.037   3.512   36.559
H   4.427   2.118   36.988
H   7.096   1.558   34.465
H   5.789   1.432   33.247
H   6.372   -0.008   34.024
H   3.161   0.600   35.685
H   3.700   -0.067   34.297
H   3.427   2.951   34.102
H   2.051   2.158   34.767
H   2.915   0.723   32.347
H   2.791   2.472   32.007
H   0.507   1.329   33.607
H   0.757   0.374   30.815
H   -0.630   0.084   31.799
H   0.924   -0.692   32.235
H   -0.617   2.287   31.270
H   0.894   3.187   31.139
H   0.254   4.552   32.858
H   -0.524   3.326   33.706
H   -2.055   5.178   32.531
H   -2.506   3.470   32.255
H   -0.516   4.753   30.271
H   -1.681   6.761   30.944
H   -3.134   5.975   30.218
H   -1.681   6.351   29.244
H   -3.148   4.106   29.061
H   -2.794   2.762   30.104
H   -1.654   1.921   28.295
H   -0.426   3.185   28.494
H   -0.636   3.946   26.580
H   -2.211   4.605   26.960
H   -2.110   1.774   26.052
H   -0.846   2.450   24.462
H   -1.217   4.149   24.404
H   -2.277   2.909   23.671
H   -4.288   2.097   25.765
H   -4.138   3.643   24.923
H   -4.121   3.570   26.751
