140
17
Mg   46.677   44.597   43.362
C   43.057   44.326   43.217
C   46.815   41.304   42.322
C   49.800   45.126   42.814
C   46.004   48.185   43.479
N   45.075   43.119   42.744
C   43.696   43.145   42.748
C   43.024   41.839   42.250
C   44.267   40.920   42.099
C   45.498   41.823   42.453
C   44.120   39.562   42.980
C   42.003   41.909   41.070
C   42.728   42.399   39.803
C   42.648   41.522   38.584
O   42.254   40.382   38.508
O   43.311   42.190   37.619
N   48.195   43.334   42.676
C   48.094   42.026   42.393
C   49.428   41.511   42.205
C   50.330   42.572   42.359
C   49.498   43.760   42.626
C   49.844   40.062   41.864
C   51.905   42.557   42.235
O   52.470   41.489   42.024
C   52.668   43.790   42.473
N   47.673   46.473   42.827
C   49.068   46.318   42.990
C   49.747   47.695   43.305
C   48.512   48.638   43.039
C   47.294   47.689   43.230
C   50.298   47.714   44.725
C   48.472   49.452   41.684
C   48.359   50.989   41.831
N   44.939   46.013   43.444
C   44.915   47.405   43.570
C   43.553   47.847   43.786
C   42.756   46.654   43.621
C   43.689   45.543   43.477
C   43.139   49.240   43.948
C   41.397   46.181   43.591
O   40.343   46.747   43.821
C   41.607   44.616   43.339
C   40.828   43.896   44.396
O   39.708   43.410   44.166
O   41.488   43.794   45.592
C   40.744   42.954   46.556
C   43.600   41.447   36.368
C   44.309   42.366   35.424
C   45.203   42.000   34.505
C   45.582   40.544   34.195
C   46.020   43.108   33.762
C   45.488   43.946   32.550
C   46.423   44.068   31.413
C   45.902   44.170   29.922
C   45.067   45.448   29.763
C   45.176   42.842   29.492
C   45.631   42.420   28.033
C   44.609   42.796   26.871
C   45.024   44.030   26.062
C   43.955   45.144   25.906
C   45.602   43.612   24.681
C   47.112   43.517   24.702
C   47.662   42.694   23.497
C   48.660   43.507   22.644
C   47.881   44.710   21.988
C   49.239   42.545   21.612
H   46.750   40.246   42.058
H   50.864   45.359   42.727
H   45.902   49.272   43.512
H   42.385   41.466   43.050
H   44.264   40.671   41.038
H   44.891   39.359   43.723
H   43.998   38.688   42.341
H   43.238   39.546   43.621
H   41.140   42.513   41.351
H   41.583   40.911   40.943
H   43.805   42.527   39.904
H   42.252   43.347   39.553
H   50.604   40.197   41.094
H   48.954   39.591   41.447
H   50.243   39.466   42.685
H   52.502   44.207   43.466
H   52.408   44.420   41.622
H   53.696   43.481   42.288
H   50.509   47.847   42.541
H   48.382   49.305   43.892
H   51.210   48.306   44.802
H   50.530   46.723   45.116
H   49.484   48.022   45.383
H   47.577   49.230   41.103
H   49.324   49.147   41.076
H   47.623   51.408   41.144
H   49.357   51.327   41.554
H   48.143   51.238   42.870
H   42.062   49.378   44.042
H   43.513   49.887   43.154
H   43.654   49.569   44.851
H   41.082   44.415   42.405
H   40.205   43.706   47.131
H   41.548   42.561   47.179
H   39.930   42.287   46.271
H   42.661   41.042   35.991
H   44.300   40.640   36.588
H   44.209   43.440   35.581
H   44.776   39.817   34.293
H   46.500   40.267   34.713
H   45.928   40.543   33.161
H   47.059   42.835   33.578
H   46.271   43.927   34.435
H   45.107   44.892   32.934
H   44.609   43.383   32.236
H   47.199   43.304   31.451
H   46.939   45.007   31.614
H   46.746   44.173   29.233
H   45.116   46.227   30.524
H   44.016   45.180   29.651
H   45.484   45.797   28.818
H   44.112   42.756   29.714
H   45.535   41.989   30.067
H   45.826   41.353   28.143
H   46.543   42.913   27.696
H   43.669   42.964   27.396
H   44.471   41.947   26.201
H   45.760   44.499   26.714
H   43.551   45.206   24.896
H   44.378   46.128   26.105
H   43.134   44.985   26.605
H   45.200   44.276   23.916
H   45.324   42.606   24.367
H   47.491   43.057   25.614
H   47.537   44.518   24.762
H   46.870   42.258   22.888
H   48.264   41.821   23.753
H   49.378   43.972   23.320
H   46.949   44.971   22.489
H   47.586   44.485   20.963
H   48.430   45.648   21.900
H   49.515   43.046   20.685
H   48.548   41.757   21.312
H   50.135   42.149   22.090
