140
2
Mg   53.702   23.424   44.947
C   50.951   25.454   44.231
C   51.764   20.735   44.126
C   56.493   21.649   44.922
C   55.466   26.346   45.772
N   51.560   23.139   44.166
C   50.655   24.121   43.942
C   49.264   23.421   43.616
C   49.509   21.928   43.776
C   50.963   21.904   44.099
C   48.684   21.227   44.870
C   48.487   23.882   42.230
C   49.236   23.612   40.907
C   48.394   23.534   39.592
O   48.155   24.477   38.845
O   48.035   22.255   39.309
N   54.052   21.442   44.653
C   53.134   20.494   44.421
C   53.793   19.235   44.286
C   55.197   19.476   44.439
C   55.304   20.906   44.670
C   53.011   17.938   43.926
C   56.249   18.493   44.492
O   55.970   17.359   44.223
C   57.594   18.785   45.060
N   55.663   23.953   45.153
C   56.660   22.996   45.207
C   58.049   23.608   45.369
C   57.724   25.063   45.894
C   56.211   25.165   45.554
C   59.033   22.829   46.259
C   58.530   26.184   45.305
C   60.087   25.884   45.220
N   53.287   25.519   45.173
C   54.113   26.578   45.591
C   53.259   27.748   45.800
C   52.085   27.350   45.262
C   52.133   26.030   44.779
C   53.704   29.053   46.315
C   50.764   27.852   44.833
O   50.322   28.977   45.039
C   50.026   26.607   44.246
C   49.836   27.073   42.836
O   50.726   27.248   42.018
O   48.495   27.359   42.669
C   48.024   27.737   41.289
C   47.387   22.001   38.048
C   48.501   21.992   37.018
C   48.911   21.016   36.163
C   48.314   19.621   36.066
C   50.183   21.156   35.403
C   51.399   20.295   35.807
C   51.759   19.273   34.656
C   53.289   19.344   34.251
C   53.502   20.381   33.107
C   53.877   17.961   34.151
C   53.147   17.168   33.072
C   52.863   15.732   33.433
C   52.335   14.884   32.223
C   51.267   13.911   32.727
C   53.554   14.139   31.542
C   53.720   14.595   30.052
C   54.455   13.505   29.270
C   53.467   12.645   28.344
C   54.214   11.333   28.050
C   52.903   13.417   27.110
H   51.286   19.811   43.795
H   57.461   21.260   44.598
H   56.059   27.209   46.082
H   48.624   23.724   44.445
H   49.303   21.439   42.824
H   48.225   20.353   44.409
H   47.845   21.896   45.065
H   49.256   21.015   45.773
H   48.331   24.959   42.286
H   47.524   23.373   42.258
H   49.795   22.682   41.011
H   49.999   24.371   40.733
H   53.531   17.203   43.310
H   52.134   18.164   43.319
H   52.687   17.378   44.803
H   58.125   19.252   44.230
H   58.045   17.861   45.421
H   57.574   19.450   45.923
H   58.499   23.556   44.377
H   57.910   25.159   46.963
H   59.459   23.466   47.034
H   59.854   22.442   45.655
H   58.633   22.023   46.875
H   58.394   27.122   45.843
H   58.126   26.208   44.293
H   60.212   25.643   44.165
H   60.401   25.025   45.813
H   60.737   26.690   45.561
H   54.680   29.362   45.941
H   53.501   29.246   47.368
H   53.075   29.784   45.808
H   49.051   26.378   44.676
H   47.584   28.735   41.295
H   47.225   27.107   40.898
H   48.887   27.734   40.624
H   46.644   22.768   37.831
H   46.883   21.045   38.189
H   49.179   22.843   37.087
H   47.599   19.709   35.248
H   47.724   19.337   36.938
H   49.014   18.854   35.737
H   50.578   22.172   35.398
H   49.932   21.052   34.348
H   51.054   19.634   36.603
H   52.254   20.834   36.216
H   51.085   19.481   33.825
H   51.449   18.307   35.054
H   53.777   19.793   35.116
H   54.203   21.126   33.483
H   52.635   21.038   33.031
H   53.986   19.951   32.230
H   54.077   17.558   35.144
H   54.923   17.989   33.845
H   53.720   17.126   32.145
H   52.181   17.525   32.717
H   52.205   15.788   34.300
H   53.799   15.442   33.911
H   51.820   15.575   31.557
H   51.255   12.986   32.150
H   50.261   14.330   32.684
H   51.399   13.521   33.736
H   53.577   13.050   31.518
H   54.452   14.380   32.111
H   54.303   15.516   30.025
H   52.718   14.820   29.687
H   54.947   12.825   29.965
H   55.210   13.898   28.589
H   52.611   12.392   28.971
H   54.811   11.574   27.170
H   53.524   10.549   27.738
H   54.846   10.946   28.849
H   51.835   13.611   27.202
H   53.137   12.808   26.238
H   53.389   14.387   27.222
