140
33
Mg   23.963   -6.770   46.299
C   26.397   -4.607   45.164
C   21.638   -5.194   44.365
C   21.920   -9.553   46.559
C   26.550   -8.656   47.901
N   24.116   -5.224   44.858
C   25.151   -4.427   44.580
C   24.768   -3.322   43.536
C   23.198   -3.396   43.594
C   22.965   -4.663   44.297
C   22.431   -2.245   44.270
C   25.465   -3.675   42.135
C   26.014   -2.433   41.341
C   25.854   -2.388   39.848
O   25.843   -1.378   39.243
O   25.767   -3.603   39.212
N   21.974   -7.202   45.720
C   21.206   -6.407   44.956
C   19.968   -7.134   44.693
C   20.066   -8.396   45.333
C   21.355   -8.376   45.966
C   19.000   -6.618   43.602
C   18.856   -9.402   45.372
O   17.863   -9.262   44.640
C   18.853   -10.599   46.240
N   24.181   -8.731   47.207
C   23.173   -9.711   47.155
C   23.572   -10.950   47.999
C   25.047   -10.575   48.535
C   25.285   -9.269   47.868
C   22.536   -11.527   48.991
C   26.115   -11.668   48.265
C   26.682   -12.318   49.505
N   26.012   -6.606   46.610
C   26.902   -7.399   47.304
C   28.245   -6.752   47.429
C   28.129   -5.680   46.498
C   26.758   -5.662   46.055
C   29.422   -7.327   48.172
C   28.722   -4.527   45.854
O   29.850   -4.143   45.816
C   27.635   -3.815   44.996
C   27.480   -2.517   45.672
O   26.708   -2.273   46.618
O   28.329   -1.632   45.145
C   28.336   -0.338   45.928
C   25.915   -3.655   37.789
C   26.088   -5.035   37.266
C   25.889   -5.415   35.944
C   25.752   -4.468   34.776
C   25.697   -6.848   35.578
C   24.280   -7.402   35.483
C   23.958   -8.501   34.468
C   23.251   -7.860   33.178
C   21.742   -8.334   33.033
C   24.103   -8.047   31.875
C   24.272   -6.733   31.107
C   25.729   -6.408   30.781
C   25.751   -5.064   30.090
C   25.881   -3.870   31.051
C   26.940   -5.012   29.073
C   26.405   -4.993   27.647
C   26.207   -6.412   27.132
C   24.768   -6.832   26.842
C   24.418   -8.278   27.359
C   24.407   -6.697   25.330
H   20.847   -4.618   43.880
H   21.207   -10.359   46.741
H   27.354   -9.069   48.515
H   25.146   -2.363   43.891
H   22.735   -3.560   42.621
H   23.015   -1.325   44.247
H   22.095   -2.515   45.271
H   21.482   -2.101   43.753
H   24.862   -4.126   41.347
H   26.374   -4.176   42.468
H   26.988   -2.085   41.684
H   25.364   -1.654   41.739
H   18.409   -7.467   43.259
H   19.592   -6.312   42.739
H   18.412   -5.743   43.881
H   19.127   -10.330   47.260
H   19.535   -11.362   45.864
H   17.838   -10.995   46.266
H   23.741   -11.686   47.213
H   24.964   -10.383   49.604
H   22.985   -11.637   49.978
H   22.350   -12.530   48.608
H   21.689   -10.840   49.008
H   26.928   -11.334   47.620
H   25.608   -12.513   47.798
H   26.147   -13.251   49.684
H   26.663   -11.678   50.387
H   27.719   -12.541   49.257
H   29.800   -8.255   47.743
H   29.231   -7.532   49.226
H   30.205   -6.577   48.067
H   27.859   -3.611   43.949
H   28.482   -0.608   46.974
H   27.481   0.280   45.657
H   29.201   0.063   45.401
H   26.772   -3.031   37.537
H   24.995   -3.260   37.358
H   26.279   -5.752   38.064
H   26.375   -4.703   33.913
H   25.842   -3.427   35.088
H   24.682   -4.442   34.574
H   26.277   -7.394   36.322
H   26.315   -7.051   34.703
H   23.517   -6.630   35.379
H   24.143   -7.726   36.515
H   23.394   -9.297   34.954
H   24.948   -8.801   34.124
H   23.105   -6.791   33.333
H   21.145   -7.540   33.480
H   21.559   -9.203   33.666
H   21.465   -8.557   32.002
H   23.605   -8.670   31.132
H   25.056   -8.494   32.158
H   23.899   -5.870   31.658
H   23.798   -6.775   30.126
H   26.221   -7.211   30.231
H   26.277   -6.309   31.717
H   24.815   -5.008   29.536
H   25.489   -3.001   30.524
H   26.929   -3.738   31.319
H   25.291   -4.022   31.955
H   27.567   -5.859   29.352
H   27.566   -4.139   29.253
H   27.149   -4.483   27.035
H   25.515   -4.369   27.557
H   26.655   -7.181   27.761
H   26.797   -6.484   26.218
H   24.057   -6.219   27.395
H   23.573   -8.191   28.041
H   25.244   -8.718   27.919
H   24.208   -8.977   26.549
H   24.465   -5.619   25.176
H   23.437   -7.136   25.097
H   25.145   -7.192   24.699
