140
23
Mg   40.728   8.281   29.340
C   42.537   9.856   32.251
C   38.887   6.767   31.764
C   39.375   6.771   26.942
C   43.507   9.383   27.468
N   40.839   8.128   31.785
C   41.485   8.970   32.758
C   40.938   8.816   34.217
C   39.882   7.694   33.971
C   39.888   7.468   32.422
C   40.113   6.477   34.847
C   40.315   10.126   34.579
C   40.900   10.978   35.786
C   41.393   10.293   37.108
O   41.961   9.271   37.334
O   41.140   11.162   38.160
N   39.259   7.001   29.347
C   38.574   6.542   30.390
C   37.397   5.897   29.915
C   37.468   5.871   28.503
C   38.795   6.540   28.216
C   36.399   5.181   30.826
C   36.393   5.400   27.477
O   36.737   5.217   26.316
C   34.968   5.133   27.935
N   41.577   7.916   27.523
C   40.673   7.292   26.635
C   41.221   7.292   25.147
C   42.396   8.282   25.266
C   42.550   8.538   26.849
C   41.684   5.888   24.676
C   42.190   9.630   24.475
C   40.991   10.462   24.970
N   42.633   9.383   29.722
C   43.575   9.774   28.827
C   44.548   10.592   29.438
C   44.121   10.717   30.770
C   42.969   9.941   30.902
C   45.724   11.261   28.663
C   44.593   11.169   32.088
O   45.552   11.819   32.549
C   43.554   10.669   33.028
C   44.270   9.820   34.060
O   44.345   8.602   33.970
O   44.784   10.591   35.135
C   45.414   9.943   36.280
C   41.838   11.077   39.430
C   40.998   11.497   40.614
C   40.600   10.692   41.649
C   40.856   9.170   41.760
C   39.754   11.234   42.765
C   38.261   10.932   42.624
C   37.597   10.176   43.730
C   36.547   10.881   44.658
C   36.589   10.372   46.185
C   35.043   10.751   44.122
C   34.204   12.072   44.440
C   33.821   12.908   43.230
C   32.352   12.653   42.714
C   32.197   12.489   41.204
C   31.290   13.695   43.301
C   29.776   13.322   42.963
C   29.101   12.803   44.249
C   27.819   13.659   44.619
C   28.170   14.651   45.741
C   26.512   12.845   44.832
H   38.190   6.435   32.537
H   38.843   6.369   26.077
H   44.193   9.916   26.806
H   41.730   8.618   34.939
H   38.861   7.976   34.226
H   39.194   6.007   35.198
H   40.548   6.803   35.792
H   40.778   5.748   34.384
H   39.274   9.936   34.840
H   40.390   10.882   33.797
H   40.127   11.658   36.142
H   41.711   11.566   35.356
H   36.672   5.401   31.858
H   36.479   4.108   30.655
H   35.376   5.552   30.765
H   34.503   6.049   28.297
H   35.094   4.439   28.766
H   34.421   4.763   27.069
H   40.372   7.613   24.544
H   43.311   7.839   24.873
H   41.250   5.679   23.698
H   41.116   5.263   25.364
H   42.734   5.621   24.561
H   41.834   9.274   23.508
H   43.078   10.261   24.426
H   41.284   11.402   25.439
H   40.492   10.006   25.824
H   40.272   10.703   24.187
H   46.102   12.166   29.139
H   45.265   11.623   27.743
H   46.488   10.519   28.430
H   43.013   11.456   33.554
H   44.833   9.769   37.185
H   46.265   10.573   36.539
H   45.843   8.971   36.037
H   42.487   11.951   39.376
H   42.410   10.169   39.624
H   40.665   12.534   40.572
H   41.211   9.058   42.785
H   41.440   8.697   40.971
H   39.915   8.653   41.575
H   39.826   12.321   42.734
H   40.083   10.889   43.746
H   38.073   10.313   41.746
H   37.705   11.857   42.474
H   38.364   9.851   44.432
H   37.175   9.265   43.306
H   36.824   11.935   44.671
H   36.989   9.368   46.320
H   35.577   10.346   46.589
H   37.217   11.060   46.750
H   34.484   9.988   44.664
H   35.069   10.618   43.040
H   34.790   12.643   45.160
H   33.340   11.655   44.958
H   34.569   12.783   42.447
H   33.823   13.960   43.518
H   32.027   11.734   43.201
H   33.115   12.007   40.866
H   32.146   13.468   40.728
H   31.273   11.993   40.909
H   31.537   14.616   42.772
H   31.427   13.811   44.376
H   29.757   12.519   42.227
H   29.242   14.068   42.375
H   29.787   12.670   45.086
H   28.907   11.772   43.955
H   27.599   14.234   43.719
H   27.853   15.667   45.502
H   29.193   14.561   46.105
H   27.497   14.378   46.554
H   26.281   12.635   45.876
H   26.599   11.947   44.220
H   25.628   13.382   44.488
