140
13
Mg   -9.484   40.656   43.624
C   -8.047   37.494   42.902
C   -6.940   42.193   41.861
C   -11.173   43.498   43.777
C   -12.237   38.855   45.034
N   -7.884   39.921   42.283
C   -7.448   38.583   42.192
C   -6.316   38.553   41.250
C   -5.621   39.962   41.581
C   -6.913   40.774   41.954
C   -4.556   39.980   42.640
C   -6.719   38.384   39.762
C   -6.324   37.043   39.160
C   -5.245   37.094   38.124
O   -4.217   37.711   38.175
O   -5.497   36.213   37.116
N   -9.141   42.503   42.819
C   -8.024   42.970   42.187
C   -8.125   44.398   41.934
C   -9.370   44.835   42.416
C   -9.944   43.634   43.078
C   -7.142   45.243   41.224
C   -9.856   46.374   42.381
O   -9.245   47.262   41.818
C   -11.232   46.681   42.926
N   -11.372   41.109   44.266
C   -11.789   42.343   44.306
C   -13.109   42.474   45.132
C   -13.527   40.994   45.429
C   -12.314   40.249   44.877
C   -12.926   43.432   46.339
C   -14.774   40.507   44.649
C   -15.826   39.644   45.372
N   -10.008   38.621   44.079
C   -11.065   38.044   44.735
C   -10.962   36.639   44.684
C   -9.694   36.365   44.198
C   -9.235   37.599   43.661
C   -12.022   35.714   45.148
C   -8.800   35.317   43.841
O   -8.849   34.056   43.993
C   -7.703   36.030   42.872
C   -6.277   35.774   43.353
O   -5.665   36.360   44.235
O   -5.722   34.824   42.568
C   -4.315   34.502   42.689
C   -4.389   36.038   36.136
C   -4.940   35.949   34.706
C   -5.253   36.932   33.770
C   -4.969   38.388   33.809
C   -6.067   36.534   32.536
C   -5.123   36.098   31.355
C   -5.955   35.797   30.105
C   -6.209   37.022   29.214
C   -5.017   37.564   28.372
C   -7.534   36.978   28.260
C   -8.193   38.304   28.250
C   -9.589   38.388   28.965
C   -9.490   38.257   30.472
C   -10.519   37.313   31.065
C   -9.645   39.660   31.128
C   -8.632   39.939   32.265
C   -7.385   40.772   31.771
C   -6.816   41.623   32.866
C   -7.784   42.893   32.889
C   -5.414   42.073   32.432
H   -6.013   42.679   41.550
H   -11.697   44.456   43.806
H   -13.022   38.279   45.529
H   -5.620   37.755   41.506
H   -5.104   40.425   40.741
H   -4.764   40.834   43.285
H   -3.566   40.104   42.204
H   -4.528   39.158   43.356
H   -6.330   39.187   39.136
H   -7.809   38.373   39.754
H   -7.242   36.775   38.636
H   -6.077   36.293   39.912
H   -6.356   44.673   40.728
H   -6.741   45.952   41.948
H   -7.656   45.781   40.427
H   -11.395   46.614   44.001
H   -12.005   46.127   42.393
H   -11.363   47.717   42.612
H   -13.883   42.904   44.497
H   -13.570   40.916   46.516
H   -13.571   44.297   46.182
H   -11.889   43.760   46.411
H   -13.230   43.025   47.303
H   -14.522   39.884   43.791
H   -15.344   41.309   44.178
H   -16.150   38.837   44.715
H   -16.675   40.286   45.607
H   -15.448   39.137   46.259
H   -12.880   35.855   44.491
H   -12.275   35.860   46.198
H   -11.674   34.688   45.023
H   -7.851   35.644   41.863
H   -4.110   33.735   41.942
H   -4.078   34.100   43.674
H   -3.619   35.335   42.593
H   -3.717   35.184   36.224
H   -3.676   36.862   36.105
H   -5.156   34.953   34.322
H   -4.302   38.732   33.018
H   -4.400   38.724   34.675
H   -5.870   38.984   33.664
H   -6.612   37.435   32.253
H   -6.712   35.719   32.865
H   -4.669   35.141   31.611
H   -4.467   36.964   31.269
H   -6.933   35.342   30.266
H   -5.305   35.056   29.641
H   -6.228   37.839   29.935
H   -4.703   38.551   28.712
H   -5.153   37.492   27.293
H   -4.158   36.984   28.710
H   -8.227   36.366   28.838
H   -7.304   36.496   27.310
H   -8.242   38.560   27.192
H   -7.516   39.062   28.644
H   -10.320   37.735   28.487
H   -9.886   39.393   28.667
H   -8.575   37.787   30.833
H   -10.951   36.651   30.314
H   -11.415   37.770   31.487
H   -10.063   36.701   31.843
H   -10.666   39.843   31.463
H   -9.477   40.382   30.329
H   -8.294   38.983   32.663
H   -9.213   40.440   33.039
H   -7.584   41.344   30.865
H   -6.650   39.983   31.611
H   -6.817   40.996   33.757
H   -7.234   43.749   32.497
H   -8.032   43.006   33.945
H   -8.747   42.722   32.409
H   -4.848   42.613   33.192
H   -5.402   42.715   31.552
H   -4.851   41.189   32.131
