140
21
Mg   -3.284   34.325   26.832
C   -3.906   32.367   29.688
C   -1.808   36.730   28.864
C   -3.310   36.546   24.341
C   -5.043   32.078   24.895
N   -2.908   34.456   28.959
C   -3.163   33.504   29.915
C   -2.678   33.932   31.411
C   -2.073   35.321   31.016
C   -2.274   35.558   29.525
C   -2.376   36.541   31.987
C   -1.821   32.918   32.255
C   -2.260   32.540   33.652
C   -1.213   32.561   34.753
O   -0.232   31.855   34.988
O   -1.561   33.598   35.530
N   -2.492   36.302   26.572
C   -1.933   37.120   27.517
C   -1.507   38.404   26.917
C   -1.961   38.354   25.555
C   -2.638   37.013   25.425
C   -0.841   39.441   27.703
C   -1.861   39.419   24.481
O   -2.326   39.272   23.373
C   -1.214   40.772   24.766
N   -4.325   34.371   24.983
C   -4.062   35.380   24.108
C   -4.491   35.063   22.651
C   -4.898   33.562   22.840
C   -4.675   33.265   24.339
C   -5.585   35.962   21.963
C   -4.122   32.637   21.851
C   -2.738   32.038   22.321
N   -4.319   32.588   27.114
C   -5.026   31.767   26.206
C   -5.473   30.654   26.972
C   -5.081   30.879   28.343
C   -4.393   32.089   28.372
C   -6.298   29.539   26.386
C   -5.131   30.364   29.695
O   -5.683   29.343   30.171
C   -4.342   31.329   30.636
C   -5.331   31.899   31.559
O   -6.116   32.746   31.275
O   -5.129   31.499   32.893
C   -6.213   31.817   33.857
C   -0.754   33.903   36.700
C   -1.486   35.048   37.381
C   -1.004   35.716   38.491
C   0.302   35.355   39.315
C   -1.800   36.785   39.265
C   -2.584   36.362   40.547
C   -2.270   37.237   41.737
C   -1.764   36.498   42.996
C   -2.973   36.146   43.859
C   -0.796   37.535   43.691
C   0.652   37.488   43.085
C   1.694   36.950   44.094
C   1.874   35.391   43.985
C   1.336   34.649   45.147
C   3.454   35.034   43.865
C   3.887   34.469   42.483
C   4.441   35.544   41.549
C   3.862   35.374   40.170
C   4.440   34.072   39.557
C   4.020   36.594   39.282
H   -1.515   37.459   29.623
H   -3.032   37.172   23.491
H   -5.504   31.364   24.209
H   -3.594   34.067   31.985
H   -0.993   35.180   30.970
H   -2.734   36.264   32.978
H   -3.308   37.012   31.677
H   -1.628   37.325   32.112
H   -0.820   33.341   32.333
H   -1.776   32.034   31.620
H   -2.481   31.475   33.579
H   -3.098   33.189   33.907
H   -0.233   39.004   28.495
H   -1.597   40.035   28.216
H   -0.142   39.979   27.061
H   -2.012   41.320   25.268
H   -1.090   41.301   23.821
H   -0.221   40.776   25.216
H   -3.632   35.186   21.991
H   -5.966   33.442   22.656
H   -5.893   36.680   22.724
H   -6.497   35.486   21.604
H   -5.150   36.547   21.154
H   -4.015   33.088   20.864
H   -4.727   31.760   21.620
H   -2.565   32.121   23.394
H   -1.915   32.468   21.750
H   -2.724   30.968   22.115
H   -5.820   29.152   25.486
H   -7.270   29.976   26.156
H   -6.360   28.798   27.183
H   -3.536   30.800   31.144
H   -7.104   32.101   33.297
H   -5.961   32.530   34.642
H   -6.556   30.901   34.338
H   0.237   34.142   36.316
H   -0.677   33.072   37.400
H   -2.387   35.443   36.913
H   0.704   36.208   39.862
H   1.034   35.041   38.571
H   0.215   34.566   40.063
H   -2.579   37.275   38.681
H   -1.077   37.584   39.432
H   -2.424   35.315   40.805
H   -3.653   36.445   40.350
H   -3.100   37.896   41.993
H   -1.584   37.993   41.354
H   -1.193   35.574   42.905
H   -3.119   36.773   44.739
H   -2.936   35.127   44.243
H   -3.865   36.443   43.307
H   -0.706   37.283   44.748
H   -1.188   38.549   43.602
H   0.937   38.499   42.796
H   0.630   36.861   42.193
H   1.403   37.280   45.091
H   2.712   37.285   43.896
H   1.325   34.935   43.161
H   1.934   35.030   45.975
H   1.417   33.563   45.125
H   0.279   34.798   45.366
H   3.786   34.163   44.431
H   4.167   35.772   44.231
H   3.092   33.827   42.104
H   4.694   33.742   42.568
H   5.521   35.470   41.424
H   4.168   36.515   41.964
H   2.809   35.180   40.373
H   3.556   33.467   39.358
H   5.077   33.507   40.237
H   4.958   34.333   38.634
H   3.059   36.800   38.812
H   4.788   36.453   38.521
H   4.264   37.524   39.796
