140
30
Mg   34.451   49.024   25.198
C   34.612   47.278   28.118
C   32.511   51.480   26.936
C   33.696   50.661   22.281
C   35.465   46.280   23.450
N   33.728   49.387   27.253
C   34.070   48.578   28.339
C   33.726   49.229   29.684
C   32.936   50.515   29.225
C   33.043   50.450   27.752
C   31.388   50.594   29.585
C   34.935   49.377   30.620
C   34.821   48.943   32.044
C   33.392   48.953   32.560
O   32.728   47.961   32.704
O   32.987   50.269   32.915
N   33.332   50.862   24.694
C   32.610   51.688   25.530
C   32.152   52.834   24.771
C   32.489   52.621   23.414
C   33.210   51.325   23.423
C   31.443   53.897   25.456
C   32.232   53.555   22.203
O   32.531   53.272   21.030
C   31.351   54.800   22.289
N   34.674   48.535   23.170
C   34.390   49.470   22.135
C   34.807   48.842   20.784
C   35.327   47.333   21.134
C   35.193   47.366   22.664
C   33.658   48.902   19.690
C   36.754   47.135   20.551
C   37.924   47.761   21.195
N   34.879   47.203   25.603
C   35.208   46.145   24.840
C   35.515   44.941   25.637
C   35.260   45.378   26.911
C   34.888   46.686   26.887
C   35.958   43.612   25.102
C   35.380   44.999   28.319
O   35.672   43.906   28.756
C   34.999   46.239   29.168
C   33.922   45.873   30.120
O   32.703   45.824   29.877
O   34.502   45.373   31.240
C   33.579   44.600   32.141
C   31.677   50.374   33.497
C   31.338   51.800   33.643
C   30.341   52.372   34.341
C   29.182   51.601   34.965
C   30.178   53.878   34.273
C   31.157   54.685   35.131
C   31.392   56.155   34.591
C   31.344   57.187   35.721
C   32.644   57.161   36.546
C   31.115   58.565   35.008
C   29.744   59.217   35.251
C   29.489   59.456   36.765
C   29.209   60.917   37.172
C   30.137   61.331   38.305
C   27.726   61.279   37.501
C   27.099   62.413   36.630
C   25.937   63.189   37.347
C   25.576   64.564   36.668
C   25.361   65.658   37.711
C   24.379   64.391   35.691
H   31.866   52.127   27.533
H   33.670   51.218   21.343
H   35.784   45.404   22.882
H   33.064   48.517   30.177
H   33.291   51.379   29.785
H   30.978   49.663   29.977
H   30.691   50.867   28.793
H   31.455   51.340   30.377
H   35.212   50.430   30.675
H   35.819   48.920   30.175
H   35.389   49.604   32.699
H   35.198   47.945   32.264
H   32.018   54.297   26.291
H   30.427   53.698   25.798
H   31.267   54.787   24.851
H   30.337   54.582   22.623
H   31.390   55.188   21.271
H   31.869   55.557   22.879
H   35.695   49.423   20.535
H   34.658   46.584   20.711
H   34.200   49.110   18.767
H   32.994   49.754   19.833
H   33.075   47.983   19.640
H   36.750   47.457   19.510
H   37.002   46.078   20.458
H   37.556   48.259   22.092
H   38.388   48.581   20.645
H   38.681   47.014   21.434
H   35.865   42.870   25.895
H   36.938   43.876   24.706
H   35.298   43.320   24.284
H   35.864   46.547   29.755
H   32.966   43.930   31.538
H   32.905   45.311   32.620
H   34.170   44.050   32.874
H   31.646   49.949   34.500
H   30.855   49.911   32.951
H   32.108   52.468   33.258
H   28.269   52.091   34.625
H   29.281   51.675   36.048
H   29.266   50.604   34.532
H   29.190   54.163   34.634
H   30.167   54.236   33.243
H   32.135   54.208   35.185
H   30.743   54.581   36.134
H   30.575   56.529   33.973
H   32.332   56.137   34.040
H   30.582   56.944   36.461
H   33.021   58.171   36.707
H   33.481   56.590   36.144
H   32.541   56.748   37.549
H   31.462   58.391   33.989
H   31.758   59.376   35.350
H   29.060   58.452   34.885
H   29.664   60.147   34.687
H   30.346   59.202   37.389
H   28.665   58.805   37.057
H   29.529   61.579   36.367
H   31.124   60.883   38.417
H   29.617   61.135   39.243
H   30.312   62.400   38.186
H   27.596   61.470   38.566
H   27.119   60.393   37.318
H   26.699   61.894   35.759
H   27.875   63.088   36.268
H   26.337   63.437   38.330
H   25.004   62.628   37.383
H   26.431   64.945   36.111
H   26.245   65.618   38.347
H   24.461   65.531   38.314
H   25.383   66.631   37.220
H   24.745   64.631   34.692
H   23.692   65.173   36.014
H   23.866   63.432   35.766
