140
9
Mg   35.844   1.663   29.803
C   33.281   2.861   31.886
C   37.955   1.633   32.511
C   38.248   0.742   27.666
C   33.497   1.785   27.036
N   35.631   2.295   31.939
C   34.458   2.489   32.617
C   34.581   2.199   34.128
C   36.080   2.096   34.332
C   36.634   2.048   32.861
C   36.745   3.063   35.295
C   33.830   0.923   34.616
C   33.288   0.959   36.132
C   33.838   2.027   37.096
O   33.363   3.137   37.259
O   34.965   1.619   37.695
N   37.876   1.208   30.075
C   38.519   1.185   31.276
C   39.848   0.819   30.975
C   39.986   0.565   29.609
C   38.716   0.844   29.019
C   40.946   0.743   32.073
C   41.163   0.162   28.844
O   41.048   -0.271   27.698
C   42.523   0.058   29.461
N   35.882   1.354   27.655
C   37.052   1.008   27.030
C   36.836   0.885   25.527
C   35.294   1.052   25.318
C   34.816   1.412   26.713
C   37.637   2.015   24.700
C   34.518   -0.140   24.753
C   34.179   -1.134   25.784
N   33.799   2.250   29.387
C   33.035   2.267   28.244
C   31.738   2.726   28.652
C   31.784   2.991   30.022
C   33.100   2.703   30.462
C   30.555   2.801   27.677
C   30.958   3.360   31.218
O   29.806   3.726   31.271
C   31.943   3.170   32.474
C   31.875   4.363   33.435
O   31.912   5.542   33.155
O   31.546   3.903   34.689
C   31.122   4.819   35.709
C   35.560   2.654   38.510
C   36.897   2.123   39.002
C   37.266   1.697   40.227
C   36.370   1.599   41.477
C   38.699   1.403   40.599
C   39.045   0.111   41.374
C   40.109   0.321   42.468
C   41.446   -0.341   42.126
C   41.337   -1.882   42.385
C   42.598   0.151   42.957
C   43.323   1.289   42.232
C   43.662   2.443   43.212
C   44.652   3.405   42.610
C   46.069   2.726   42.615
C   44.703   4.787   43.253
C   43.665   5.730   42.641
C   44.175   6.519   41.306
C   43.743   8.002   41.400
C   43.629   8.584   40.032
C   44.837   8.797   42.207
H   38.583   1.424   33.380
H   39.010   0.506   26.919
H   32.776   1.797   26.217
H   34.225   3.097   34.633
H   36.317   1.094   34.690
H   37.401   2.613   36.041
H   35.962   3.673   35.745
H   37.494   3.755   34.911
H   34.496   0.062   34.555
H   32.922   0.773   34.032
H   33.634   -0.003   36.509
H   32.204   0.850   36.104
H   41.296   -0.242   32.383
H   40.585   1.242   32.973
H   41.766   1.310   31.631
H   42.803   0.963   30.000
H   43.260   -0.232   28.712
H   42.456   -0.768   30.169
H   37.167   -0.068   25.114
H   35.067   1.889   24.657
H   38.513   1.787   24.094
H   38.061   2.711   25.425
H   36.910   2.544   24.084
H   35.053   -0.474   23.864
H   33.579   0.296   24.412
H   34.646   -2.044   25.410
H   33.109   -1.216   25.971
H   34.798   -0.988   26.670
H   30.346   1.838   27.210
H   30.890   3.419   26.844
H   29.681   3.253   28.146
H   31.446   2.372   33.025
H   30.665   4.382   36.597
H   30.378   5.387   35.151
H   32.023   5.347   36.020
H   34.973   2.966   39.374
H   35.912   3.451   37.855
H   37.698   2.281   38.280
H   36.021   0.576   41.619
H   35.600   2.362   41.360
H   36.856   1.867   42.415
H   39.124   2.334   40.976
H   39.226   1.349   39.646
H   39.541   -0.541   40.655
H   38.218   -0.424   41.843
H   39.764   -0.172   43.377
H   40.192   1.382   42.705
H   41.640   -0.323   41.054
H   40.358   -2.141   42.788
H   42.112   -2.287   43.035
H   41.495   -2.471   41.482
H   43.358   -0.599   43.176
H   42.211   0.509   43.912
H   42.802   1.773   41.406
H   44.145   0.844   41.670
H   44.072   2.061   44.147
H   42.664   2.821   43.431
H   44.546   3.595   41.542
H   46.860   3.476   42.595
H   46.249   2.030   41.796
H   46.253   2.134   43.511
H   45.639   5.341   43.183
H   44.549   4.652   44.324
H   43.332   6.408   43.427
H   42.800   5.159   42.303
H   43.627   6.060   40.482
H   45.252   6.445   41.155
H   42.776   8.094   41.895
H   44.295   8.195   39.262
H   43.851   9.651   40.017
H   42.584   8.458   39.747
H   45.329   8.117   42.904
H   44.380   9.655   42.699
H   45.567   9.184   41.497
