140
34
Mg   -9.686   18.288   42.514
C   -6.189   17.763   42.641
C   -8.952   21.654   41.842
C   -12.993   18.770   41.724
C   -10.170   14.943   42.617
N   -7.714   19.476   41.980
C   -6.440   19.019   42.199
C   -5.508   20.184   41.929
C   -6.389   21.499   41.832
C   -7.779   20.832   41.900
C   -6.160   22.632   42.945
C   -4.500   19.954   40.687
C   -5.203   19.269   39.487
C   -4.797   19.940   38.123
O   -3.639   20.259   37.768
O   -5.908   20.010   37.261
N   -10.878   20.014   41.889
C   -10.347   21.277   41.777
C   -11.476   22.127   41.559
C   -12.700   21.378   41.560
C   -12.235   19.995   41.736
C   -11.386   23.643   41.503
C   -14.098   21.898   41.398
O   -14.278   23.111   41.101
C   -15.312   20.976   41.592
N   -11.327   17.062   42.005
C   -12.567   17.487   41.899
C   -13.620   16.322   42.059
C   -12.659   15.041   42.135
C   -11.276   15.705   42.313
C   -14.668   16.397   43.179
C   -12.607   14.032   40.906
C   -12.559   12.564   41.333
N   -8.558   16.697   42.798
C   -8.857   15.378   42.935
C   -7.720   14.641   43.454
C   -6.653   15.530   43.350
C   -7.205   16.776   42.908
C   -7.628   13.271   43.926
C   -5.242   15.711   43.605
O   -4.335   14.985   44.022
C   -4.868   17.130   43.065
C   -4.175   17.970   44.033
O   -3.001   18.331   43.945
O   -4.943   18.190   45.131
C   -4.365   19.138   46.179
C   -5.564   20.132   35.856
C   -6.599   19.434   35.093
C   -6.991   19.715   33.797
C   -6.457   20.948   33.057
C   -7.986   18.799   33.078
C   -9.307   18.624   33.877
C   -10.504   18.659   32.949
C   -11.380   19.953   33.075
C   -12.770   19.470   33.268
C   -11.317   20.807   31.767
C   -10.580   22.123   31.946
C   -9.631   22.421   30.777
C   -9.991   23.736   30.040
C   -9.254   24.947   30.591
C   -9.619   23.638   28.531
C   -10.455   24.677   27.682
C   -11.363   23.970   26.653
C   -10.938   24.244   25.172
C   -12.180   24.740   24.305
C   -10.281   22.975   24.605
H   -8.557   22.669   41.759
H   -14.081   18.820   41.637
H   -10.201   13.863   42.777
H   -4.969   20.217   42.875
H   -6.241   21.920   40.837
H   -5.274   22.563   43.576
H   -7.015   22.758   43.608
H   -5.859   23.575   42.487
H   -3.900   19.134   41.081
H   -3.874   20.817   40.459
H   -6.292   19.240   39.444
H   -4.933   18.226   39.319
H   -11.359   24.122   42.481
H   -12.236   23.938   40.887
H   -10.486   23.915   40.951
H   -15.200   20.327   42.460
H   -15.491   20.293   40.762
H   -16.207   21.589   41.695
H   -14.158   16.360   41.111
H   -12.824   14.559   43.098
H   -14.276   16.930   44.045
H   -15.043   15.403   43.421
H   -15.516   17.023   42.905
H   -11.733   14.257   40.294
H   -13.436   14.293   40.248
H   -13.385   12.092   40.800
H   -12.598   12.435   42.414
H   -11.581   12.213   41.003
H   -7.370   13.220   44.984
H   -7.062   12.601   43.279
H   -8.659   12.921   43.874
H   -4.220   16.983   42.202
H   -3.399   18.693   46.417
H   -4.934   19.292   47.096
H   -4.195   20.129   45.758
H   -4.629   19.727   35.469
H   -5.409   21.178   35.591
H   -7.163   18.598   35.508
H   -5.422   21.197   33.293
H   -7.084   21.666   33.584
H   -6.696   21.053   31.998
H   -7.490   17.906   32.696
H   -8.180   19.368   32.169
H   -9.316   19.468   34.567
H   -9.311   17.667   34.400
H   -11.054   17.768   33.252
H   -10.248   18.359   31.933
H   -11.177   20.653   33.886
H   -13.361   20.383   33.348
H   -12.782   18.830   34.150
H   -13.023   18.801   32.446
H   -12.291   21.111   31.383
H   -11.048   20.208   30.897
H   -9.963   22.068   32.843
H   -11.319   22.909   32.103
H   -9.816   21.581   30.108
H   -8.623   22.450   31.191
H   -11.069   23.855   30.147
H   -8.504   25.361   29.917
H   -8.871   24.844   31.606
H   -9.988   25.743   30.719
H   -9.913   22.674   28.116
H   -8.547   23.714   28.349
H   -9.742   25.421   27.328
H   -11.070   25.346   28.283
H   -12.365   24.381   26.773
H   -11.473   22.902   26.842
H   -10.148   24.995   25.137
H   -11.920   25.739   23.954
H   -13.114   24.851   24.857
H   -12.470   24.111   23.464
H   -9.241   23.258   24.446
H   -10.575   22.684   23.596
H   -10.290   22.123   25.284
