140
9
Mg   40.963   41.587   27.137
C   39.775   43.789   29.567
C   41.418   39.317   29.614
C   42.205   39.411   24.824
C   40.532   44.054   24.720
N   40.581   41.591   29.377
C   40.050   42.552   30.121
C   40.159   42.181   31.705
C   40.644   40.744   31.583
C   40.953   40.534   30.117
C   41.748   40.179   32.474
C   38.823   42.496   32.423
C   38.274   41.540   33.453
C   37.569   42.319   34.542
O   36.409   42.770   34.393
O   38.419   42.635   35.539
N   41.761   39.581   27.146
C   41.819   38.858   28.320
C   42.231   37.505   28.008
C   42.376   37.448   26.597
C   42.154   38.871   26.072
C   42.339   36.360   29.018
C   42.872   36.323   25.635
O   42.975   36.423   24.384
C   43.176   35.075   26.180
N   41.391   41.721   25.063
C   41.920   40.735   24.363
C   41.891   41.038   22.867
C   41.326   42.496   22.811
C   41.017   42.829   24.251
C   43.209   40.737   21.995
C   40.139   42.583   21.854
C   38.871   41.796   22.226
N   40.305   43.467   27.129
C   40.194   44.408   26.040
C   39.721   45.671   26.465
C   39.466   45.464   27.825
C   39.887   44.120   28.197
C   39.677   46.946   25.677
C   38.998   46.102   29.065
O   38.587   47.185   29.330
C   39.262   45.101   30.226
C   40.263   45.765   31.152
O   41.448   45.969   30.869
O   39.619   46.097   32.288
C   40.369   46.727   33.369
C   37.952   43.461   36.688
C   38.058   42.812   37.999
C   37.535   43.146   39.227
C   36.630   44.333   39.377
C   37.979   42.450   40.520
C   37.150   41.210   40.898
C   38.121   40.296   41.608
C   37.507   39.067   42.253
C   36.141   38.600   41.617
C   37.363   39.047   43.848
C   38.615   38.612   44.723
C   38.433   37.602   45.894
C   37.378   37.900   46.996
C   37.991   38.654   48.202
C   36.544   36.700   47.467
C   35.204   36.725   46.714
C   34.453   35.439   46.573
C   32.951   35.500   47.075
C   32.065   34.986   46.010
C   32.648   34.759   48.421
H   41.241   38.601   30.419
H   42.537   38.799   23.983
H   40.391   44.940   24.099
H   40.983   42.709   32.186
H   39.746   40.148   31.747
H   42.708   40.189   31.959
H   41.393   39.211   32.828
H   41.837   40.701   33.426
H   38.095   42.529   31.613
H   38.856   43.528   32.773
H   39.016   40.967   34.008
H   37.517   40.862   33.058
H   41.814   36.636   29.933
H   43.404   36.129   29.023
H   41.841   35.444   28.699
H   43.899   35.119   26.994
H   43.580   34.451   25.383
H   42.274   34.587   26.549
H   41.119   40.408   22.424
H   42.032   43.227   22.418
H   43.897   40.645   22.835
H   43.241   41.556   21.276
H   43.141   39.818   21.413
H   40.462   42.122   20.921
H   39.847   43.607   21.619
H   38.044   42.377   21.819
H   38.742   41.590   23.289
H   38.842   40.795   21.797
H   40.666   47.218   25.310
H   39.332   47.717   26.366
H   39.009   46.916   24.816
H   38.287   44.905   30.673
H   41.438   46.848   33.195
H   40.204   46.143   34.275
H   39.987   47.738   33.513
H   36.947   43.812   36.455
H   38.690   44.258   36.597
H   38.777   41.994   37.957
H   35.612   43.965   39.509
H   36.657   44.900   38.447
H   37.045   44.994   40.138
H   37.973   43.142   41.362
H   39.046   42.250   40.424
H   36.622   40.721   40.079
H   36.330   41.553   41.529
H   38.615   40.799   42.439
H   38.895   40.046   40.883
H   38.117   38.190   42.037
H   36.073   37.515   41.698
H   36.016   38.685   40.538
H   35.302   39.150   42.045
H   36.412   38.579   44.104
H   37.284   40.110   44.080
H   39.148   39.470   45.132
H   39.267   38.109   44.009
H   39.341   37.247   46.383
H   38.008   36.705   45.443
H   36.693   38.624   46.556
H   39.075   38.554   48.261
H   37.518   38.468   49.166
H   37.637   39.683   48.157
H   36.403   36.714   48.548
H   37.111   35.810   47.196
H   35.263   37.068   45.681
H   34.557   37.432   47.234
H   35.021   34.618   47.012
H   34.422   35.143   45.524
H   32.641   36.533   47.232
H   31.970   35.840   45.340
H   31.078   34.750   46.407
H   32.418   34.153   45.400
H   32.680   35.528   49.193
H   33.324   33.940   48.667
H   31.627   34.378   48.447
