140
27
Mg   -9.544   42.464   42.485
C   -8.321   39.126   41.728
C   -6.511   43.517   40.944
C   -10.782   45.433   42.247
C   -12.539   40.964   43.480
N   -7.519   41.382   41.564
C   -7.301   40.060   41.400
C   -6.023   39.761   40.626
C   -5.329   41.238   40.637
C   -6.533   42.147   41.105
C   -4.046   41.365   41.411
C   -6.236   39.160   39.218
C   -5.392   37.922   38.827
C   -4.327   38.292   37.765
O   -3.498   39.191   37.897
O   -4.468   37.674   36.527
N   -8.692   44.196   41.728
C   -7.478   44.438   41.122
C   -7.351   45.887   40.931
C   -8.567   46.484   41.321
C   -9.410   45.351   41.812
C   -6.210   46.555   40.216
C   -8.868   48.015   41.285
O   -7.981   48.780   40.901
C   -10.233   48.586   41.572
N   -11.443   43.079   42.777
C   -11.712   44.438   42.731
C   -13.057   44.708   43.545
C   -13.574   43.250   43.982
C   -12.465   42.361   43.377
C   -12.782   45.639   44.800
C   -15.043   42.894   43.557
C   -16.079   42.960   44.689
N   -10.265   40.492   42.728
C   -11.514   40.079   43.077
C   -11.597   38.650   42.993
C   -10.418   38.250   42.449
C   -9.603   39.398   42.250
C   -12.794   37.860   43.310
C   -9.695   37.035   42.034
O   -10.002   35.825   42.092
C   -8.301   37.612   41.565
C   -7.276   36.733   42.211
O   -6.911   36.732   43.405
O   -6.620   35.975   41.234
C   -5.742   34.999   41.822
C   -3.714   38.142   35.366
C   -4.499   37.703   34.161
C   -5.435   38.328   33.423
C   -5.987   39.753   33.775
C   -5.962   37.703   32.164
C   -5.418   38.408   30.902
C   -5.510   37.522   29.587
C   -6.335   38.318   28.549
C   -6.006   37.971   27.058
C   -7.917   38.238   28.845
C   -8.823   39.509   28.588
C   -10.323   39.210   28.586
C   -11.013   39.859   29.804
C   -12.018   38.871   30.425
C   -11.720   41.244   29.526
C   -10.855   42.484   29.953
C   -10.969   42.598   31.520
C   -9.547   42.594   32.200
C   -9.401   41.481   33.287
C   -9.258   44.007   32.750
H   -5.529   43.870   40.621
H   -11.090   46.465   42.428
H   -13.389   40.396   43.864
H   -5.373   39.056   41.145
H   -5.184   41.618   39.626
H   -3.420   40.490   41.238
H   -4.434   41.467   42.424
H   -3.660   42.315   41.039
H   -5.958   40.006   38.589
H   -7.292   38.937   39.062
H   -6.061   37.189   38.377
H   -4.887   37.485   39.688
H   -5.696   47.329   40.786
H   -6.671   47.024   39.347
H   -5.527   45.814   39.802
H   -10.289   48.504   42.657
H   -10.932   47.990   40.985
H   -10.428   49.635   41.347
H   -13.838   45.275   43.037
H   -13.491   43.180   45.066
H   -11.855   46.172   44.590
H   -12.702   45.060   45.720
H   -13.547   46.415   44.788
H   -15.080   41.950   43.014
H   -15.352   43.706   42.899
H   -16.700   43.844   44.546
H   -15.618   43.065   45.671
H   -16.815   42.156   44.672
H   -12.422   36.900   43.667
H   -13.416   37.774   42.419
H   -13.277   38.334   44.164
H   -8.274   37.419   40.493
H   -4.968   35.538   42.367
H   -5.213   34.525   40.995
H   -6.277   34.194   42.327
H   -2.823   37.514   35.364
H   -3.441   39.195   35.293
H   -4.030   36.814   33.741
H   -5.463   40.420   33.091
H   -5.756   39.916   34.828
H   -7.073   39.779   33.690
H   -7.014   37.975   32.078
H   -5.978   36.613   32.153
H   -4.435   38.767   31.208
H   -5.902   39.362   30.695
H   -6.005   36.567   29.765
H   -4.490   37.295   29.277
H   -5.958   39.325   28.732
H   -5.803   38.816   26.400
H   -6.900   37.509   26.639
H   -5.213   37.236   26.919
H   -8.043   37.930   29.883
H   -8.307   37.466   28.181
H   -8.735   39.896   27.572
H   -8.560   40.290   29.301
H   -10.394   38.127   28.685
H   -10.900   39.550   27.726
H   -10.291   40.047   30.599
H   -11.706   37.843   30.239
H   -13.022   38.979   30.015
H   -11.944   39.191   31.464
H   -12.669   41.370   30.048
H   -11.916   41.194   28.455
H   -11.331   43.404   29.612
H   -9.797   42.430   29.697
H   -11.632   41.864   31.976
H   -11.503   43.531   31.703
H   -8.707   42.428   31.525
H   -10.320   40.972   33.574
H   -8.857   41.822   34.168
H   -8.738   40.756   32.815
H   -8.206   44.167   32.513
H   -9.313   44.011   33.839
H   -9.843   44.823   32.326
