140
9
Mg   -8.811   18.182   43.356
C   -5.353   17.651   43.308
C   -8.281   21.431   42.542
C   -12.036   18.432   42.633
C   -9.174   14.530   43.700
N   -7.012   19.284   42.717
C   -5.699   18.870   42.792
C   -4.725   20.094   42.682
C   -5.729   21.258   42.833
C   -7.092   20.645   42.585
C   -5.681   22.010   44.223
C   -3.943   20.086   41.380
C   -4.317   19.125   40.164
C   -3.790   19.476   38.715
O   -2.650   19.463   38.327
O   -4.862   19.744   37.905
N   -10.024   19.714   42.832
C   -9.623   20.976   42.575
C   -10.775   21.809   42.282
C   -11.847   20.999   42.082
C   -11.373   19.661   42.519
C   -10.667   23.307   42.116
C   -13.188   21.349   41.638
O   -13.411   22.547   41.468
C   -14.337   20.409   41.469
N   -10.445   16.631   43.183
C   -11.695   17.084   42.960
C   -12.607   15.869   43.147
C   -11.748   14.554   43.349
C   -10.368   15.302   43.416
C   -13.640   16.104   44.239
C   -11.727   13.480   42.159
C   -11.856   12.049   42.669
N   -7.542   16.483   43.492
C   -7.849   15.077   43.774
C   -6.597   14.398   44.031
C   -5.570   15.367   43.778
C   -6.203   16.628   43.552
C   -6.488   12.917   44.328
C   -4.167   15.593   43.782
O   -3.241   14.854   43.960
C   -3.948   17.159   43.577
C   -3.202   17.891   44.641
O   -2.027   18.285   44.545
O   -4.003   18.091   45.777
C   -3.654   19.236   46.599
C   -4.590   19.958   36.442
C   -5.979   20.040   35.655
C   -6.615   18.976   35.068
C   -6.221   17.505   35.348
C   -7.797   19.209   34.115
C   -9.169   18.713   34.659
C   -9.623   17.392   33.940
C   -10.680   17.656   32.810
C   -10.879   16.395   31.912
C   -10.482   18.925   31.908
C   -11.519   20.029   32.319
C   -10.980   21.506   32.327
C   -11.518   22.299   31.177
C   -12.967   22.633   31.474
C   -10.582   23.488   30.765
C   -10.347   23.501   29.267
C   -11.449   24.240   28.417
C   -11.828   23.563   27.138
C   -12.252   24.658   26.109
C   -12.824   22.365   27.371
H   -7.960   22.466   42.407
H   -13.084   18.607   42.378
H   -9.257   13.493   44.031
H   -4.021   20.136   43.512
H   -5.634   21.982   42.023
H   -6.530   22.644   44.478
H   -4.829   22.686   44.165
H   -5.563   21.292   45.035
H   -2.924   19.827   41.668
H   -3.740   21.082   40.988
H   -5.399   19.002   40.124
H   -3.884   18.137   40.318
H   -11.125   23.573   41.164
H   -9.615   23.594   42.137
H   -11.329   23.753   42.858
H   -14.651   20.046   42.448
H   -14.172   19.548   40.821
H   -15.190   20.999   41.136
H   -13.166   15.719   42.223
H   -11.891   14.159   44.355
H   -13.163   16.094   45.219
H   -14.343   15.272   44.234
H   -14.343   16.921   44.075
H   -10.827   13.543   41.548
H   -12.561   13.681   41.486
H   -12.842   11.678   42.392
H   -11.845   11.890   43.747
H   -11.107   11.433   42.171
H   -5.581   12.772   44.916
H   -6.287   12.405   43.387
H   -7.354   12.515   44.854
H   -3.416   17.241   42.630
H   -3.352   20.137   46.064
H   -2.780   18.990   47.201
H   -4.520   19.467   47.218
H   -3.994   19.143   36.033
H   -3.913   20.795   36.271
H   -6.374   21.014   35.366
H   -5.527   17.503   36.189
H   -5.765   17.118   34.436
H   -6.920   16.741   35.687
H   -7.568   18.705   33.176
H   -7.986   20.254   33.868
H   -9.829   19.548   34.423
H   -9.180   18.663   35.748
H   -10.092   16.739   34.676
H   -8.808   16.806   33.516
H   -11.627   17.793   33.332
H   -11.107   15.499   32.489
H   -9.956   16.134   31.394
H   -11.677   16.433   31.170
H   -10.602   18.661   30.857
H   -9.462   19.305   31.955
H   -12.057   19.782   33.233
H   -12.335   19.942   31.602
H   -9.897   21.382   32.337
H   -11.199   22.000   33.274
H   -11.657   21.666   30.300
H   -13.203   22.276   32.477
H   -13.677   22.005   30.936
H   -13.076   23.716   31.411
H   -9.570   23.448   31.168
H   -10.970   24.472   31.031
H   -10.271   22.465   28.937
H   -9.402   23.975   29.000
H   -11.043   25.233   28.226
H   -12.315   24.227   29.077
H   -10.962   23.032   26.742
H   -11.359   25.025   25.605
H   -12.831   25.421   26.630
H   -12.913   24.276   25.330
H   -13.300   22.439   28.349
H   -12.279   21.437   27.200
H   -13.720   22.373   26.750
