140
8
Mg   -2.942   34.621   26.490
C   -3.665   32.812   29.323
C   -1.064   36.766   28.372
C   -2.943   36.834   23.869
C   -4.501   32.326   24.602
N   -2.432   34.701   28.672
C   -2.797   33.882   29.708
C   -2.379   34.448   31.056
C   -1.499   35.722   30.683
C   -1.625   35.727   29.110
C   -1.999   37.141   31.239
C   -1.478   33.433   31.873
C   -1.928   32.979   33.184
C   -1.068   33.306   34.420
O   -0.086   32.669   34.796
O   -1.643   34.302   35.199
N   -2.025   36.448   26.170
C   -1.260   37.175   27.003
C   -0.783   38.362   26.424
C   -1.341   38.426   25.145
C   -2.155   37.219   25.029
C   0.080   39.319   27.128
C   -1.093   39.554   24.045
O   -1.680   39.488   22.945
C   -0.268   40.836   24.336
N   -3.821   34.679   24.599
C   -3.633   35.589   23.626
C   -4.036   35.122   22.229
C   -4.086   33.612   22.425
C   -4.163   33.547   23.971
C   -5.354   35.743   21.684
C   -2.843   32.879   21.756
C   -3.242   31.420   21.230
N   -4.030   33.014   26.889
C   -4.599   32.136   25.998
C   -5.198   30.998   26.683
C   -4.917   31.261   28.068
C   -4.123   32.478   28.077
C   -5.989   29.928   26.058
C   -5.128   30.783   29.417
O   -5.769   29.848   29.808
C   -4.328   31.798   30.301
C   -5.337   32.399   31.239
O   -6.095   33.285   30.864
O   -5.187   31.905   32.512
C   -6.022   32.366   33.589
C   -1.029   34.555   36.464
C   -1.906   34.904   37.608
C   -2.303   34.141   38.695
C   -2.065   32.618   38.820
C   -2.802   34.927   39.877
C   -1.842   35.498   40.949
C   -2.534   36.757   41.546
C   -2.207   36.943   43.047
C   -3.410   37.608   43.803
C   -0.911   37.712   43.375
C   -0.492   37.782   44.880
C   1.016   37.716   45.111
C   1.414   36.490   45.916
C   0.818   36.637   47.379
C   3.042   36.446   45.838
C   3.597   35.055   45.489
C   5.062   34.904   45.925
C   5.946   34.265   44.902
C   7.324   33.995   45.560
C   6.107   35.194   43.657
H   -0.504   37.507   28.946
H   -2.793   37.443   22.975
H   -4.902   31.640   23.853
H   -3.244   34.802   31.617
H   -0.429   35.688   30.889
H   -2.725   36.922   32.022
H   -2.429   37.908   30.595
H   -1.186   37.616   31.787
H   -0.504   33.907   31.987
H   -1.225   32.671   31.135
H   -1.787   31.901   33.109
H   -2.957   33.278   33.382
H   0.858   39.511   26.389
H   0.522   38.942   28.051
H   -0.494   40.201   27.414
H   -0.466   41.508   23.501
H   0.794   40.629   24.468
H   -0.683   41.280   25.241
H   -3.250   35.479   21.564
H   -5.035   33.249   22.028
H   -5.595   36.611   22.297
H   -6.261   35.157   21.832
H   -5.266   36.112   20.662
H   -2.084   32.801   22.534
H   -2.444   33.431   20.905
H   -2.642   30.698   21.783
H   -3.113   31.385   20.149
H   -4.254   31.125   21.509
H   -5.314   29.224   25.571
H   -6.587   30.331   25.240
H   -6.562   29.412   26.828
H   -3.661   31.309   31.011
H   -5.464   32.997   34.281
H   -6.287   31.506   34.203
H   -6.929   32.847   33.224
H   -0.367   35.401   36.276
H   -0.381   33.764   36.841
H   -2.026   35.961   37.847
H   -1.486   32.259   37.969
H   -2.946   31.980   38.884
H   -1.429   32.381   39.673
H   -3.596   34.299   40.283
H   -3.357   35.783   39.493
H   -0.859   35.872   40.662
H   -1.691   34.702   41.677
H   -3.624   36.719   41.547
H   -2.178   37.589   40.938
H   -2.110   35.918   43.407
H   -3.085   38.060   44.740
H   -4.158   36.858   44.060
H   -3.839   38.398   43.187
H   -1.104   38.722   43.014
H   -0.082   37.448   42.718
H   -0.964   36.997   45.471
H   -0.760   38.769   45.258
H   1.267   38.611   45.680
H   1.453   37.660   44.114
H   0.973   35.665   45.356
H   1.548   36.593   48.187
H   0.167   35.766   47.452
H   0.175   37.509   47.498
H   3.471   36.622   46.824
H   3.345   37.167   45.079
H   3.451   34.762   44.449
H   3.006   34.410   46.139
H   5.040   34.291   46.827
H   5.524   35.858   46.180
H   5.549   33.290   44.622
H   7.313   34.222   46.626
H   8.019   34.621   45.001
H   7.488   32.920   45.489
H   5.513   34.782   42.841
H   7.082   35.152   43.171
H   5.758   36.218   43.789
