140
26
Mg   26.046   -1.045   29.864
C   28.018   -1.526   32.755
C   23.274   -0.888   31.846
C   24.442   -0.624   27.050
C   29.063   -1.838   28.031
N   25.759   -1.146   32.031
C   26.688   -1.248   33.005
C   26.035   -0.994   34.396
C   24.565   -1.000   34.029
C   24.487   -1.014   32.504
C   23.811   -2.216   34.512
C   26.709   0.224   35.099
C   27.033   0.248   36.637
C   26.127   -0.534   37.587
O   25.660   -1.658   37.488
O   26.024   0.281   38.701
N   24.146   -0.857   29.524
C   23.117   -0.763   30.423
C   21.844   -0.575   29.774
C   22.150   -0.409   28.380
C   23.618   -0.693   28.239
C   20.565   -0.533   30.517
C   21.226   -0.108   27.216
O   21.576   -0.075   26.039
C   19.812   0.169   27.454
N   26.736   -1.200   27.774
C   25.800   -0.806   26.802
C   26.476   -0.720   25.447
C   27.925   -1.103   25.816
C   27.942   -1.343   27.285
C   25.691   -1.658   24.397
C   29.069   -0.094   25.298
C   30.008   -0.657   24.229
N   28.189   -1.490   30.241
C   29.228   -1.772   29.397
C   30.436   -1.909   30.235
C   30.062   -1.909   31.518
C   28.665   -1.611   31.516
C   31.859   -2.127   29.706
C   30.490   -2.016   32.903
O   31.628   -2.221   33.286
C   29.183   -1.750   33.814
C   28.912   -2.886   34.728
O   28.086   -3.824   34.604
O   29.497   -2.535   35.950
C   28.923   -3.272   37.149
C   25.446   -0.349   39.907
C   25.050   0.642   40.941
C   24.479   0.412   42.143
C   23.790   -0.835   42.412
C   24.313   1.571   43.141
C   24.453   1.218   44.671
C   23.070   1.358   45.325
C   23.022   0.563   46.701
C   22.347   -0.877   46.592
C   22.320   1.505   47.788
C   23.329   2.241   48.757
C   23.047   3.720   48.903
C   23.539   4.586   47.651
C   24.552   5.691   47.919
C   22.245   5.233   47.105
C   22.287   5.676   45.625
C   21.685   7.084   45.348
C   22.926   8.022   45.081
C   23.282   8.883   46.375
C   22.646   8.931   43.907
H   22.392   -0.879   32.490
H   23.906   -0.228   26.185
H   29.849   -2.210   27.371
H   26.319   -1.868   34.981
H   24.058   -0.073   34.296
H   24.304   -2.573   35.416
H   23.714   -2.914   33.679
H   22.844   -1.848   34.856
H   26.073   1.108   35.124
H   27.634   0.601   34.662
H   27.165   1.276   36.973
H   28.012   -0.210   36.770
H   20.247   0.503   30.400
H   20.605   -0.853   31.558
H   19.819   -1.191   30.071
H   19.401   -0.674   28.009
H   19.368   0.177   26.458
H   19.524   1.115   27.912
H   26.450   0.352   25.253
H   28.072   -2.126   25.471
H   26.332   -2.327   23.822
H   25.236   -1.085   23.590
H   24.997   -2.313   24.924
H   29.667   0.124   26.183
H   28.516   0.795   24.995
H   30.189   -0.009   23.372
H   29.551   -1.567   23.840
H   30.947   -1.020   24.647
H   31.937   -2.047   28.622
H   32.327   -3.091   29.905
H   32.458   -1.291   30.070
H   29.432   -0.849   34.375
H   29.405   -4.243   37.264
H   27.854   -3.460   37.050
H   28.993   -2.787   38.123
H   26.282   -0.943   40.275
H   24.643   -1.041   39.651
H   25.480   1.630   40.781
H   23.152   -0.809   43.295
H   24.510   -1.642   42.542
H   23.199   -1.044   41.520
H   23.358   2.057   42.944
H   25.204   2.194   43.068
H   25.112   1.978   45.091
H   24.883   0.287   45.041
H   22.360   0.977   44.591
H   22.821   2.412   45.444
H   24.051   0.464   47.045
H   23.099   -1.639   46.795
H   21.892   -1.073   45.620
H   21.568   -0.878   47.355
H   21.640   1.019   48.488
H   21.686   2.216   47.258
H   24.401   2.168   48.573
H   23.194   1.738   49.714
H   23.356   4.115   49.871
H   21.974   3.803   49.078
H   23.947   3.885   46.923
H   24.141   6.342   48.690
H   24.667   6.279   47.008
H   25.483   5.297   48.328
H   21.979   6.073   47.746
H   21.395   4.552   47.150
H   21.751   4.945   45.020
H   23.238   5.437   45.148
H   21.037   7.461   46.139
H   21.045   7.098   44.466
H   23.825   7.425   44.926
H   24.341   8.722   46.578
H   22.950   8.582   47.368
H   23.149   9.961   46.286
H   22.290   9.931   44.156
H   22.035   8.349   43.217
H   23.515   9.113   43.276
