140
23
Mg   -10.071   40.655   42.977
C   -8.641   37.593   42.132
C   -7.440   42.217   41.309
C   -11.755   43.557   43.234
C   -12.786   38.956   44.399
N   -8.337   39.998   41.673
C   -7.972   38.646   41.448
C   -6.664   38.587   40.673
C   -6.197   40.095   40.685
C   -7.443   40.815   41.138
C   -4.982   40.409   41.496
C   -7.004   38.105   39.241
C   -6.398   36.799   38.666
C   -5.233   37.106   37.591
O   -4.316   37.926   37.741
O   -5.523   36.309   36.427
N   -9.613   42.591   42.464
C   -8.479   43.042   41.829
C   -8.535   44.444   41.561
C   -9.819   44.876   42.162
C   -10.488   43.668   42.672
C   -7.532   45.263   40.702
C   -10.290   46.339   41.970
O   -9.505   47.207   41.607
C   -11.750   46.689   42.284
N   -12.053   41.202   43.485
C   -12.524   42.434   43.595
C   -13.883   42.502   44.246
C   -14.183   41.020   44.527
C   -12.920   40.323   44.149
C   -13.868   43.297   45.527
C   -15.334   40.407   43.804
C   -16.608   40.182   44.673
N   -10.601   38.661   43.342
C   -11.663   38.165   44.004
C   -11.545   36.720   44.045
C   -10.324   36.433   43.358
C   -9.824   37.661   42.883
C   -12.407   35.737   44.775
C   -9.374   35.448   42.864
O   -9.322   34.228   42.895
C   -8.270   36.166   42.078
C   -6.926   35.891   42.722
O   -6.461   36.446   43.639
O   -6.277   34.926   41.927
C   -4.865   34.827   41.934
C   -4.649   36.571   35.280
C   -5.500   36.919   34.012
C   -6.434   37.797   33.727
C   -6.994   38.887   34.642
C   -7.126   37.646   32.340
C   -6.175   37.743   31.120
C   -6.106   36.531   30.211
C   -6.215   36.892   28.659
C   -5.296   36.018   27.804
C   -7.756   36.795   28.191
C   -8.483   38.221   28.083
C   -10.005   38.179   28.314
C   -10.304   38.708   29.726
C   -10.624   37.557   30.731
C   -11.537   39.658   29.624
C   -12.071   40.252   30.914
C   -13.483   39.776   31.345
C   -13.213   39.001   32.697
C   -13.888   37.633   32.840
C   -13.550   39.899   33.871
H   -6.469   42.637   41.038
H   -12.395   44.439   43.306
H   -13.610   38.455   44.912
H   -6.022   37.876   41.193
H   -6.061   40.448   39.663
H   -4.404   41.177   40.983
H   -4.300   39.559   41.530
H   -5.296   40.730   42.489
H   -6.722   38.865   38.511
H   -8.083   37.960   39.186
H   -7.203   36.233   38.197
H   -5.962   36.206   39.470
H   -6.774   44.686   40.172
H   -7.040   45.965   41.375
H   -8.141   45.617   39.870
H   -11.848   46.860   43.356
H   -12.365   45.852   41.955
H   -12.014   47.454   41.554
H   -14.541   43.089   43.605
H   -14.188   40.820   45.599
H   -14.768   42.940   46.028
H   -13.977   44.381   45.480
H   -12.943   43.188   46.093
H   -15.074   39.457   43.336
H   -15.546   40.948   42.883
H   -16.590   40.910   45.485
H   -16.519   39.165   45.055
H   -17.543   40.288   44.123
H   -13.392   35.663   44.314
H   -12.542   35.971   45.831
H   -11.915   34.765   44.736
H   -8.272   35.750   41.071
H   -4.571   34.143   41.138
H   -4.439   34.305   42.790
H   -4.359   35.786   41.825
H   -4.064   35.662   35.136
H   -3.918   37.358   35.466
H   -5.402   36.137   33.259
H   -6.729   39.902   34.346
H   -6.610   38.715   35.648
H   -8.083   38.882   34.590
H   -7.757   38.533   32.294
H   -7.729   36.738   32.344
H   -5.179   37.871   31.543
H   -6.383   38.668   30.581
H   -6.907   35.913   30.618
H   -5.122   36.106   30.408
H   -5.881   37.918   28.506
H   -4.522   36.505   27.211
H   -5.906   35.454   27.099
H   -4.820   35.389   28.556
H   -8.312   36.162   28.882
H   -7.830   36.285   27.231
H   -8.394   38.637   27.080
H   -8.078   38.984   28.748
H   -10.376   37.157   28.385
H   -10.441   38.716   27.471
H   -9.501   39.290   30.180
H   -11.706   37.646   30.831
H   -10.115   37.695   31.684
H   -10.301   36.569   30.403
H   -12.267   39.041   29.099
H   -11.414   40.539   28.995
H   -12.102   41.339   30.849
H   -11.280   40.146   31.657
H   -14.001   39.199   30.579
H   -14.148   40.615   31.550
H   -12.147   38.810   32.823
H   -14.662   37.515   33.598
H   -13.149   36.831   32.844
H   -14.395   37.323   31.927
H   -14.594   40.111   34.101
H   -12.991   40.834   33.835
H   -13.131   39.537   34.809
