140
11
Mg   53.036   23.473   43.742
C   50.273   25.684   43.349
C   50.897   20.805   43.544
C   55.769   21.395   43.064
C   55.199   26.214   43.346
N   50.767   23.359   43.203
C   49.850   24.332   43.330
C   48.490   23.710   43.589
C   48.660   22.115   43.586
C   50.272   22.119   43.583
C   48.040   21.546   44.882
C   47.475   24.179   42.559
C   47.980   24.345   41.106
C   47.514   23.280   40.076
O   47.466   22.070   40.304
O   47.136   23.818   38.944
N   53.321   21.333   43.437
C   52.262   20.453   43.384
C   52.844   19.148   43.349
C   54.268   19.244   43.111
C   54.551   20.696   43.239
C   52.013   17.887   43.294
C   55.225   18.133   42.676
O   54.800   17.015   42.457
C   56.631   18.331   42.488
N   55.160   23.753   43.170
C   56.045   22.769   43.109
C   57.456   23.245   42.804
C   57.164   24.784   42.536
C   55.800   24.970   43.096
C   58.499   22.996   44.000
C   57.341   25.125   40.985
C   58.472   25.998   40.520
N   52.842   25.472   43.666
C   53.826   26.481   43.632
C   53.207   27.815   43.743
C   51.851   27.500   43.657
C   51.629   26.089   43.485
C   53.875   29.208   44.010
C   50.528   28.132   43.632
O   50.148   29.311   43.724
C   49.456   27.007   43.452
C   48.884   27.414   42.138
O   49.507   27.531   41.114
O   47.607   27.756   42.283
C   46.798   28.121   41.068
C   46.767   22.842   37.890
C   47.942   22.210   37.174
C   48.033   21.022   36.524
C   46.852   20.075   36.089
C   49.412   20.556   36.144
C   49.656   19.843   34.817
C   50.967   20.239   34.165
C   52.008   19.161   34.255
C   53.356   19.836   34.580
C   52.088   18.224   33.002
C   51.214   16.971   33.018
C   51.982   15.599   32.740
C   51.168   14.605   31.873
C   50.375   13.611   32.819
C   52.087   13.782   30.927
C   52.112   14.316   29.537
C   53.553   14.327   28.993
C   53.732   13.416   27.777
C   55.105   12.801   27.478
C   53.110   14.091   26.508
H   50.225   19.978   43.782
H   56.714   20.868   42.918
H   55.943   26.979   43.112
H   48.295   24.161   44.562
H   48.231   21.650   42.698
H   47.246   20.854   44.602
H   47.575   22.292   45.527
H   48.839   20.992   45.374
H   47.067   25.143   42.863
H   46.659   23.461   42.472
H   49.050   24.242   40.926
H   47.634   25.336   40.812
H   50.946   18.106   43.246
H   52.316   17.257   44.131
H   52.352   17.315   42.431
H   56.904   19.016   41.685
H   57.101   17.375   42.258
H   56.940   18.764   43.440
H   57.860   22.865   41.866
H   58.028   25.246   43.014
H   58.004   22.455   44.807
H   58.785   23.975   44.385
H   59.433   22.503   43.726
H   56.504   25.716   40.613
H   57.405   24.215   40.390
H   58.178   27.026   40.308
H   58.729   25.479   39.596
H   59.395   25.896   41.091
H   54.346   29.531   43.082
H   54.560   29.078   44.848
H   53.087   29.931   44.220
H   48.796   27.082   44.317
H   46.909   29.168   40.785
H   45.736   27.933   41.231
H   47.159   27.453   40.286
H   46.316   23.494   37.143
H   46.101   22.101   38.332
H   48.860   22.683   37.524
H   46.055   20.799   35.922
H   46.688   19.363   36.898
H   47.033   19.557   35.147
H   49.715   19.862   36.928
H   50.028   21.452   36.220
H   48.824   20.046   34.142
H   49.481   18.788   35.028
H   51.349   21.220   34.447
H   50.624   20.249   33.130
H   51.748   18.646   35.180
H   54.096   19.509   33.850
H   53.530   19.593   35.628
H   53.380   20.925   34.524
H   53.124   18.004   32.742
H   51.620   18.681   32.131
H   50.494   17.099   32.209
H   50.671   16.907   33.961
H   52.090   15.142   33.724
H   52.972   15.835   32.349
H   50.478   15.227   31.303
H   51.045   12.831   33.182
H   49.496   13.188   32.332
H   49.966   14.165   33.663
H   51.819   12.728   30.987
H   53.074   13.758   31.388
H   51.636   15.293   29.448
H   51.480   13.656   28.944
H   54.388   14.253   29.691
H   53.654   15.363   28.669
H   53.155   12.577   28.166
H   55.949   13.324   27.928
H   55.404   12.767   26.431
H   54.965   11.771   27.805
H   52.033   13.923   26.505
H   53.438   13.654   25.565
H   53.360   15.151   26.482
