140
11
Mg   -2.172   16.979   26.952
C   -2.724   15.150   29.855
C   -3.037   19.797   28.583
C   -2.393   18.593   23.988
C   -2.097   13.934   25.142
N   -2.701   17.332   28.983
C   -2.735   16.515   30.092
C   -3.142   17.326   31.353
C   -3.734   18.616   30.706
C   -3.027   18.649   29.359
C   -5.291   18.598   30.511
C   -1.923   17.380   32.292
C   -2.247   17.176   33.723
C   -1.119   16.770   34.559
O   0.100   16.929   34.359
O   -1.691   16.303   35.755
N   -2.429   18.956   26.427
C   -2.717   19.977   27.275
C   -2.491   21.221   26.583
C   -2.293   20.858   25.202
C   -2.453   19.402   25.146
C   -2.607   22.556   27.227
C   -2.127   21.736   23.919
O   -1.956   21.255   22.797
C   -2.023   23.233   24.007
N   -2.580   16.290   24.861
C   -2.482   17.222   23.792
C   -2.411   16.578   22.447
C   -2.098   15.118   22.910
C   -2.200   15.118   24.433
C   -3.710   16.740   21.587
C   -0.675   14.614   22.470
C   0.509   15.548   22.828
N   -2.258   14.948   27.375
C   -2.163   13.821   26.544
C   -2.255   12.689   27.388
C   -2.444   13.177   28.675
C   -2.449   14.531   28.603
C   -2.114   11.266   26.950
C   -2.701   12.782   29.980
O   -2.818   11.636   30.451
C   -2.897   14.029   30.894
C   -1.760   13.883   31.953
O   -0.543   14.006   31.727
O   -2.349   13.589   33.178
C   -1.465   13.152   34.305
C   -0.684   15.826   36.743
C   -0.662   16.912   37.742
C   -0.960   16.982   39.029
C   -1.406   15.903   39.937
C   -0.660   18.402   39.717
C   0.684   18.792   40.441
C   0.442   19.931   41.486
C   1.409   21.182   41.330
C   1.173   21.752   39.863
C   2.931   20.876   41.683
C   3.558   21.946   42.575
C   3.729   21.410   44.061
C   2.805   21.976   45.111
C   3.514   22.528   46.356
C   1.776   20.955   45.661
C   0.534   21.626   46.335
C   -0.782   20.839   46.159
C   -1.964   21.689   45.556
C   -3.244   21.640   46.413
C   -2.232   21.474   44.063
H   -3.425   20.617   29.191
H   -2.309   18.942   22.956
H   -1.871   12.976   24.669
H   -3.880   16.775   31.935
H   -3.404   19.484   31.276
H   -5.816   17.731   30.913
H   -5.543   18.538   29.453
H   -5.717   19.457   31.029
H   -1.559   18.405   32.237
H   -1.196   16.652   31.931
H   -2.958   16.350   33.747
H   -2.763   18.063   34.090
H   -2.535   22.483   28.312
H   -3.467   23.068   26.794
H   -1.745   23.163   26.950
H   -2.356   23.584   23.030
H   -0.986   23.543   24.138
H   -2.687   23.646   24.767
H   -1.578   16.925   21.834
H   -2.859   14.452   22.502
H   -4.545   16.971   22.249
H   -4.019   15.877   20.997
H   -3.693   17.536   20.842
H   -0.754   14.400   21.404
H   -0.598   13.637   22.947
H   1.247   15.064   23.468
H   0.079   16.422   23.318
H   1.052   15.894   21.949
H   -3.026   10.766   27.276
H   -1.207   10.868   27.405
H   -2.075   11.109   25.872
H   -3.860   13.934   31.395
H   -0.970   12.243   33.964
H   -1.936   12.932   35.263
H   -0.826   14.035   34.318
H   0.301   15.615   36.326
H   -1.061   14.900   37.176
H   -0.272   17.840   37.325
H   -0.782   15.754   40.818
H   -1.304   14.962   39.397
H   -2.453   15.921   40.242
H   -1.493   18.503   40.413
H   -0.842   19.165   38.960
H   1.529   19.039   39.799
H   0.935   17.911   41.031
H   0.449   19.548   42.506
H   -0.561   20.286   41.247
H   1.131   21.931   42.072
H   1.110   22.829   40.019
H   0.219   21.423   39.449
H   2.067   21.629   39.253
H   3.396   20.887   40.697
H   3.085   19.883   42.107
H   2.919   22.828   42.585
H   4.415   22.423   42.100
H   4.767   21.667   44.273
H   3.824   20.331   44.178
H   2.319   22.864   44.707
H   3.306   23.595   46.280
H   4.555   22.261   46.541
H   3.041   22.246   47.297
H   2.286   20.306   46.373
H   1.457   20.327   44.829
H   0.383   22.675   46.079
H   0.700   21.664   47.411
H   -1.080   20.506   47.153
H   -0.661   19.996   45.479
H   -1.719   22.736   45.736
H   -3.726   22.616   46.354
H   -2.970   21.453   47.452
H   -3.815   20.863   45.907
H   -2.644   22.386   43.631
H   -2.914   20.649   43.858
H   -1.327   21.340   43.472
