140
5
Mg   34.644   49.362   25.939
C   34.444   47.295   28.665
C   33.396   51.927   27.613
C   34.582   51.066   23.009
C   35.673   46.465   24.017
N   33.815   49.514   27.869
C   34.080   48.636   28.865
C   33.871   49.369   30.212
C   33.162   50.697   29.813
C   33.473   50.730   28.322
C   31.694   50.840   30.245
C   35.170   49.640   31.081
C   35.040   50.263   32.447
C   33.613   50.321   33.080
O   32.916   49.328   33.302
O   33.150   51.620   33.242
N   34.204   51.299   25.429
C   33.798   52.218   26.306
C   33.746   53.487   25.591
C   34.030   53.261   24.249
C   34.286   51.826   24.150
C   33.213   54.793   26.264
C   34.046   54.243   23.040
O   34.191   53.879   21.883
C   33.948   55.697   23.292
N   34.930   48.798   23.774
C   34.827   49.744   22.775
C   35.238   49.115   21.475
C   35.799   47.719   21.870
C   35.482   47.637   23.295
C   34.033   49.089   20.432
C   37.237   47.487   21.419
C   38.415   47.783   22.392
N   34.924   47.269   26.216
C   35.329   46.269   25.363
C   35.304   45.002   26.105
C   35.094   45.379   27.450
C   34.762   46.764   27.424
C   35.796   43.760   25.514
C   35.064   44.998   28.891
O   35.314   43.954   29.389
C   34.664   46.255   29.692
C   33.432   45.908   30.464
O   32.384   45.643   29.909
O   33.646   45.879   31.819
C   32.633   45.286   32.643
C   31.772   51.723   33.838
C   31.368   53.212   34.134
C   30.820   53.702   35.268
C   30.511   52.884   36.547
C   30.577   55.260   35.452
C   31.563   56.092   36.284
C   32.300   57.199   35.504
C   32.057   58.523   36.252
C   33.348   59.356   36.157
C   30.811   59.230   35.463
C   29.843   59.725   36.489
C   30.225   61.094   37.238
C   29.139   62.213   36.996
C   29.829   63.627   36.700
C   28.134   62.256   38.237
C   26.618   62.431   37.749
C   26.059   63.783   38.137
C   25.239   64.422   36.952
C   26.245   65.343   36.119
C   24.063   65.337   37.413
H   33.265   52.832   28.209
H   34.743   51.690   22.128
H   36.164   45.657   23.471
H   33.240   48.746   30.846
H   33.517   51.530   30.420
H   31.409   50.019   30.902
H   31.124   50.593   29.349
H   31.418   51.641   30.931
H   35.786   50.199   30.377
H   35.622   48.659   31.221
H   35.265   51.314   32.272
H   35.729   49.752   33.120
H   33.847   55.663   26.095
H   33.127   54.578   27.330
H   32.229   55.079   25.893
H   33.126   56.018   23.932
H   33.931   56.128   22.291
H   34.865   56.009   23.793
H   36.006   49.784   21.087
H   35.256   46.911   21.379
H   33.950   49.883   19.690
H   33.172   48.862   21.060
H   34.291   48.203   19.851
H   37.390   48.156   20.573
H   37.318   46.432   21.157
H   38.893   46.859   22.718
H   38.162   48.309   23.312
H   39.185   48.391   21.918
H   36.306   44.086   24.608
H   34.894   43.151   25.449
H   36.470   43.319   26.248
H   35.490   46.555   30.337
H   31.711   45.747   32.289
H   32.794   45.509   33.698
H   32.775   44.207   32.599
H   31.756   51.078   34.717
H   31.002   51.515   33.095
H   31.632   53.828   33.274
H   31.091   53.173   37.425
H   30.759   51.825   36.489
H   29.477   52.900   36.891
H   29.565   55.369   35.842
H   30.409   55.667   34.455
H   32.346   55.458   36.701
H   30.992   56.526   37.105
H   31.931   57.224   34.478
H   33.373   57.024   35.424
H   31.770   58.379   37.294
H   33.659   59.342   37.202
H   33.124   60.375   35.841
H   34.153   58.868   35.608
H   30.253   58.565   34.803
H   31.158   60.078   34.872
H   29.727   58.890   37.181
H   28.870   59.905   36.031
H   31.223   61.415   36.937
H   30.274   60.826   38.293
H   28.559   61.837   36.153
H   29.173   64.391   37.117
H   29.745   63.920   35.653
H   30.852   63.653   37.075
H   28.458   63.072   38.881
H   28.234   61.329   38.803
H   26.058   61.639   38.247
H   26.614   62.352   36.662
H   26.691   64.580   38.528
H   25.378   63.545   38.954
H   24.829   63.702   36.243
H   25.965   65.391   35.067
H   27.262   64.957   36.188
H   26.282   66.415   36.310
H   24.341   66.353   37.132
H   23.856   65.295   38.482
H   23.170   65.054   36.854
