140
8
Mg   -2.091   16.922   26.379
C   -2.400   14.650   29.163
C   -3.155   19.372   28.328
C   -2.169   18.793   23.586
C   -1.706   14.040   24.384
N   -2.757   16.965   28.550
C   -2.737   16.009   29.511
C   -3.158   16.555   30.845
C   -3.682   17.969   30.430
C   -3.150   18.144   28.998
C   -5.228   18.256   30.495
C   -2.028   16.666   31.954
C   -2.408   16.062   33.341
C   -1.259   15.859   34.347
O   -0.093   15.622   34.007
O   -1.617   16.051   35.698
N   -2.388   18.854   26.050
C   -2.860   19.743   26.986
C   -2.883   21.100   26.331
C   -2.452   20.947   25.026
C   -2.320   19.477   24.802
C   -3.219   22.364   27.154
C   -2.123   22.031   24.016
O   -1.805   21.780   22.855
C   -2.075   23.449   24.472
N   -2.116   16.411   24.302
C   -2.154   17.390   23.396
C   -2.107   16.832   21.937
C   -1.790   15.318   22.198
C   -1.846   15.212   23.742
C   -3.414   17.163   21.200
C   -0.358   14.870   21.731
C   0.820   15.782   22.224
N   -2.114   14.830   26.611
C   -1.797   13.770   25.775
C   -1.793   12.499   26.385
C   -1.933   12.870   27.697
C   -2.118   14.254   27.841
C   -1.799   11.158   25.824
C   -2.023   12.268   28.955
O   -1.921   11.071   29.295
C   -2.354   13.399   30.027
C   -1.343   13.295   31.101
O   -0.149   13.482   30.923
O   -1.970   12.776   32.233
C   -1.105   12.276   33.334
C   -0.573   16.011   36.775
C   -0.991   16.954   37.861
C   -1.091   16.806   39.147
C   -0.718   15.476   39.909
C   -1.702   17.877   39.947
C   -0.589   18.623   40.757
C   -0.425   20.154   40.449
C   -0.087   21.014   41.703
C   -1.323   21.400   42.469
C   0.813   22.270   41.514
C   2.295   22.132   42.061
C   2.437   22.965   43.419
C   3.344   22.370   44.483
C   4.791   22.195   43.975
C   2.751   21.039   45.180
C   2.390   21.190   46.696
C   0.875   20.979   47.041
C   0.349   22.199   47.912
C   -0.811   21.705   48.820
C   -0.062   23.449   47.082
H   -3.610   20.172   28.915
H   -2.258   19.404   22.685
H   -1.451   13.182   23.758
H   -3.997   15.986   31.245
H   -3.284   18.740   31.090
H   -5.491   17.389   31.099
H   -5.653   18.331   29.494
H   -5.468   19.166   31.045
H   -1.828   17.711   32.189
H   -1.129   16.218   31.531
H   -3.004   15.159   33.213
H   -3.076   16.749   33.861
H   -3.686   22.060   28.090
H   -3.902   22.969   26.557
H   -2.302   22.887   27.425
H   -1.724   24.035   23.623
H   -1.352   23.487   25.287
H   -3.060   23.736   24.842
H   -1.320   17.355   21.393
H   -2.554   14.694   21.737
H   -4.174   17.344   21.961
H   -3.689   16.250   20.673
H   -3.350   17.945   20.443
H   -0.418   14.763   20.648
H   -0.228   13.852   22.097
H   1.752   15.226   22.319
H   0.495   16.213   23.171
H   0.933   16.691   21.631
H   -0.938   10.661   26.270
H   -1.603   11.108   24.753
H   -2.797   10.779   26.045
H   -3.304   13.087   30.461
H   -0.285   11.671   32.947
H   -1.616   11.593   34.013
H   -0.571   13.043   33.894
H   0.428   16.293   36.450
H   -0.488   14.962   37.057
H   -1.277   17.941   37.498
H   -1.509   15.122   40.569
H   0.154   15.712   40.519
H   -0.679   14.619   39.236
H   -2.345   17.384   40.677
H   -2.332   18.578   39.401
H   0.346   18.164   40.438
H   -0.713   18.220   41.762
H   -1.334   20.649   40.107
H   0.391   20.330   39.747
H   0.440   20.341   42.379
H   -1.083   21.584   43.516
H   -2.090   20.627   42.408
H   -1.801   22.302   42.087
H   0.400   23.176   41.959
H   0.836   22.578   40.469
H   3.013   22.400   41.286
H   2.527   21.074   42.183
H   1.495   23.254   43.885
H   2.774   23.967   43.150
H   3.535   23.223   45.135
H   5.057   21.177   43.688
H   5.492   22.528   44.740
H   4.988   22.769   43.069
H   3.445   20.199   45.212
H   1.926   20.732   44.537
H   2.794   22.149   47.019
H   2.891   20.398   47.252
H   0.804   20.039   47.588
H   0.353   21.062   46.088
H   1.094   22.605   48.596
H   -0.699   20.637   49.005
H   -1.817   21.875   48.435
H   -0.734   22.032   49.856
H   -1.075   23.377   46.688
H   0.668   23.673   46.304
H   -0.013   24.350   47.693
