140
11
Mg   0.260   43.342   24.756
C   2.253   43.099   27.618
C   -2.442   42.420   26.694
C   -1.574   42.877   21.915
C   3.146   43.605   22.860
N   -0.011   42.927   26.887
C   0.884   43.100   27.868
C   0.292   43.094   29.285
C   -1.203   42.685   28.995
C   -1.298   42.759   27.370
C   -1.682   41.323   29.542
C   0.446   44.411   30.046
C   0.460   44.232   31.575
C   0.300   42.825   32.168
O   1.232   42.039   32.294
O   -0.981   42.675   32.754
N   -1.745   42.847   24.340
C   -2.745   42.558   25.297
C   -3.995   42.340   24.597
C   -3.748   42.405   23.175
C   -2.331   42.753   23.082
C   -5.287   42.180   25.350
C   -4.758   42.322   21.944
O   -4.440   42.534   20.799
C   -6.184   41.936   22.272
N   0.728   43.160   22.710
C   -0.189   43.011   21.711
C   0.472   43.049   20.284
C   1.928   43.346   20.639
C   1.927   43.364   22.156
C   0.260   41.877   19.243
C   2.388   44.694   20.036
C   2.043   46.002   20.782
N   2.321   43.509   25.091
C   3.382   43.611   24.229
C   4.616   43.693   24.936
C   4.227   43.484   26.335
C   2.892   43.363   26.339
C   5.992   43.888   24.474
C   4.712   43.255   27.689
O   5.856   43.341   28.148
C   3.475   43.001   28.600
C   3.566   41.713   29.280
O   3.334   40.616   28.783
O   4.171   41.890   30.499
C   4.757   40.731   31.200
C   -1.151   41.359   33.487
C   -2.598   41.363   34.004
C   -2.920   41.181   35.301
C   -1.970   40.610   36.334
C   -4.353   41.374   35.756
C   -4.646   42.721   36.464
C   -5.706   43.566   35.778
C   -6.746   44.061   36.776
C   -6.169   45.197   37.592
C   -8.042   44.490   36.081
C   -9.243   43.619   36.443
C   -9.273   42.386   35.533
C   -9.087   41.031   36.301
C   -8.374   40.027   35.417
C   -10.445   40.545   36.706
C   -10.768   40.827   38.152
C   -11.601   39.710   38.812
C   -13.153   39.769   38.313
C   -14.090   39.919   39.567
C   -13.489   38.551   37.374
H   -3.231   42.102   27.379
H   -2.181   42.913   21.008
H   4.049   43.785   22.273
H   0.677   42.264   29.877
H   -1.923   43.456   29.267
H   -2.573   41.636   30.086
H   -0.941   40.897   30.218
H   -1.872   40.628   28.724
H   -0.325   45.132   29.777
H   1.383   44.896   29.771
H   -0.374   44.875   31.857
H   1.321   44.720   32.034
H   -5.001   42.069   26.396
H   -5.810   41.300   24.975
H   -5.962   43.028   25.225
H   -6.374   40.888   22.506
H   -6.815   42.274   21.450
H   -6.387   42.559   23.143
H   -0.035   43.911   19.851
H   2.515   42.521   20.237
H   1.174   41.512   18.776
H   -0.346   42.261   18.423
H   -0.309   41.092   19.742
H   1.973   44.713   19.029
H   3.469   44.594   19.934
H   1.752   46.695   19.993
H   2.897   46.446   21.293
H   1.294   45.889   21.565
H   6.475   44.581   25.162
H   6.099   44.260   23.455
H   6.570   42.978   24.636
H   3.482   43.843   29.292
H   4.584   39.796   30.666
H   4.266   40.649   32.170
H   5.807   41.020   31.229
H   -0.425   41.337   34.300
H   -1.028   40.513   32.811
H   -3.384   41.800   33.388
H   -1.650   39.702   35.823
H   -2.481   40.277   37.237
H   -1.157   41.289   36.591
H   -4.787   40.559   36.335
H   -5.029   41.427   34.902
H   -3.713   43.280   36.527
H   -4.834   42.450   37.503
H   -6.294   43.042   35.025
H   -5.173   44.391   35.305
H   -6.939   43.198   37.413
H   -5.085   45.227   37.707
H   -6.624   45.197   38.583
H   -6.331   46.121   37.038
H   -7.967   44.584   34.998
H   -8.350   45.486   36.402
H   -10.168   44.120   36.159
H   -9.206   43.369   37.504
H   -8.520   42.508   34.754
H   -10.247   42.230   35.069
H   -8.399   41.185   37.131
H   -8.928   39.863   34.493
H   -8.449   39.025   35.840
H   -7.352   40.350   35.215
H   -10.552   39.480   36.499
H   -11.316   40.952   36.193
H   -11.164   41.842   38.202
H   -9.904   40.952   38.806
H   -11.488   39.802   39.892
H   -11.064   38.781   38.617
H   -13.294   40.709   37.780
H   -14.924   39.224   39.464
H   -14.447   40.948   39.598
H   -13.714   39.785   40.581
H   -14.043   37.774   37.901
H   -12.619   38.111   36.887
H   -14.049   38.831   36.482
