140
11
Mg   46.488   44.181   43.475
C   43.153   43.461   43.304
C   47.108   40.756   42.735
C   49.771   44.925   43.242
C   45.735   47.576   43.265
N   45.188   42.336   42.677
C   43.854   42.275   42.948
C   43.322   40.916   42.586
C   44.623   40.028   42.366
C   45.766   41.063   42.612
C   44.586   38.651   42.921
C   42.209   40.774   41.443
C   42.226   41.758   40.311
C   42.132   41.192   38.901
O   41.155   40.583   38.468
O   43.248   41.480   38.152
N   48.191   42.963   43.286
C   48.251   41.629   43.026
C   49.601   41.161   42.916
C   50.417   42.378   43.185
C   49.458   43.502   43.257
C   50.077   39.812   42.656
C   51.925   42.498   43.352
O   52.629   41.580   43.121
C   52.689   43.744   43.705
N   47.561   45.954   43.154
C   48.896   45.989   43.284
C   49.462   47.472   42.972
C   48.151   48.311   43.368
C   47.107   47.233   43.199
C   50.712   47.887   43.753
C   48.000   49.605   42.548
C   47.685   50.938   43.237
N   44.795   45.312   43.205
C   44.598   46.687   43.176
C   43.226   47.016   43.207
C   42.575   45.798   43.313
C   43.575   44.762   43.309
C   42.608   48.380   43.215
C   41.371   45.094   43.470
O   40.237   45.565   43.529
C   41.647   43.573   43.299
C   40.961   42.960   44.511
O   40.138   42.022   44.451
O   41.522   43.525   45.632
C   41.271   42.991   46.993
C   43.072   41.197   36.714
C   43.838   42.232   35.877
C   44.985   42.058   35.172
C   45.740   40.675   35.108
C   45.783   43.208   34.499
C   46.248   42.958   33.084
C   45.687   44.062   32.090
C   45.854   43.886   30.517
C   46.951   44.761   29.813
C   44.587   43.878   29.714
C   44.616   42.799   28.487
C   43.911   43.293   27.242
C   44.838   43.685   26.097
C   44.213   44.803   25.114
C   45.448   42.548   25.342
C   47.030   42.465   25.242
C   47.552   43.161   24.012
C   47.492   42.393   22.609
C   48.920   42.121   22.136
C   46.684   43.263   21.622
H   47.228   39.729   42.384
H   50.800   45.163   42.965
H   45.509   48.644   43.271
H   42.746   40.537   43.431
H   44.706   39.885   41.289
H   45.472   38.393   43.501
H   44.341   37.907   42.163
H   43.784   38.582   43.656
H   41.183   40.860   41.801
H   42.358   39.835   40.909
H   42.982   42.538   40.395
H   41.270   42.282   40.337
H   49.359   39.103   43.067
H   51.061   39.599   43.072
H   50.122   39.701   41.572
H   51.899   44.167   44.326
H   52.890   44.378   42.842
H   53.628   43.617   44.244
H   49.580   47.519   41.889
H   48.022   48.620   44.405
H   50.387   48.597   44.514
H   51.510   48.172   43.068
H   51.168   47.063   44.301
H   47.212   49.418   41.818
H   48.886   49.706   41.921
H   48.293   51.809   42.992
H   47.593   50.846   44.320
H   46.636   51.078   42.978
H   41.689   48.461   43.796
H   42.395   48.667   42.185
H   43.249   49.141   43.662
H   41.155   43.346   42.354
H   42.160   43.015   47.623
H   40.931   41.960   46.894
H   40.513   43.438   47.635
H   42.069   41.419   36.350
H   43.267   40.153   36.470
H   43.388   43.218   35.999
H   46.041   40.268   34.143
H   45.292   39.873   35.695
H   46.736   40.892   35.495
H   46.637   43.514   35.103
H   45.007   43.969   34.585
H   46.029   41.986   32.642
H   47.327   43.104   33.024
H   46.270   44.919   32.425
H   44.655   44.221   32.402
H   46.334   42.909   30.555
H   46.746   45.550   29.089
H   47.471   44.089   29.130
H   47.621   45.221   30.540
H   44.428   44.878   29.310
H   43.758   43.560   30.346
H   44.248   41.819   28.790
H   45.635   42.586   28.162
H   43.343   44.128   27.651
H   43.182   42.568   26.882
H   45.634   44.254   26.577
H   43.199   45.049   25.429
H   44.146   44.486   24.073
H   44.843   45.693   25.096
H   45.078   42.563   24.317
H   45.238   41.581   25.800
H   47.365   41.430   25.303
H   47.469   43.026   26.067
H   48.608   43.312   24.234
H   47.152   44.171   23.924
H   46.964   41.469   22.845
H   49.262   42.932   21.493
H   49.046   41.146   21.664
H   49.639   42.207   22.951
H   45.850   43.819   22.050
H   46.421   42.569   20.824
H   47.210   44.015   21.034
