140
9
Mg   44.658   3.277   47.116
C   42.285   5.854   47.025
C   42.122   0.933   47.062
C   47.002   0.836   46.832
C   47.222   5.630   46.744
N   42.409   3.464   47.007
C   41.637   4.597   47.133
C   40.144   4.216   47.147
C   40.182   2.574   47.248
C   41.641   2.304   47.085
C   39.648   1.971   48.554
C   39.294   4.699   45.941
C   39.884   4.546   44.484
C   38.947   4.556   43.254
O   37.776   4.227   43.203
O   39.614   4.821   42.097
N   44.554   1.177   46.937
C   43.407   0.440   46.946
C   43.754   -0.948   46.850
C   45.192   -1.007   46.645
C   45.685   0.385   46.846
C   42.734   -2.055   46.886
C   45.988   -2.310   46.410
O   45.379   -3.382   46.424
C   47.400   -2.247   46.106
N   46.863   3.257   46.705
C   47.610   2.088   46.843
C   49.029   2.417   47.189
C   49.120   3.936   46.950
C   47.680   4.323   46.697
C   49.484   1.957   48.604
C   50.012   4.514   45.840
C   51.194   3.657   45.231
N   44.791   5.342   46.943
C   45.891   6.229   46.761
C   45.348   7.627   46.699
C   43.995   7.464   46.936
C   43.670   6.096   46.937
C   46.148   8.957   46.539
C   42.792   8.281   47.040
O   42.475   9.455   46.860
C   41.582   7.244   47.115
C   40.831   7.525   48.368
O   41.390   7.775   49.446
O   39.507   7.317   48.177
C   38.609   7.661   49.234
C   38.865   4.999   40.897
C   39.732   4.583   39.780
C   39.506   4.712   38.457
C   38.451   5.648   37.913
C   40.451   4.021   37.432
C   41.487   2.926   37.940
C   42.914   3.524   38.351
C   44.105   2.974   37.416
C   45.097   1.996   38.032
C   44.797   4.124   36.638
C   44.144   4.532   35.304
C   45.115   4.365   34.154
C   44.860   3.128   33.180
C   45.999   2.087   33.186
C   44.539   3.625   31.747
C   43.164   4.022   31.333
C   43.071   5.154   30.263
C   43.700   4.691   28.914
C   42.636   4.402   27.797
C   44.755   5.658   28.360
H   41.320   0.199   47.161
H   47.794   0.092   46.947
H   47.960   6.426   46.867
H   39.670   4.581   48.058
H   39.555   2.230   46.426
H   38.811   1.324   48.293
H   39.447   2.905   49.079
H   40.417   1.407   49.081
H   39.088   5.758   46.097
H   38.348   4.181   46.093
H   40.386   3.579   44.460
H   40.573   5.346   44.213
H   43.190   -2.695   47.642
H   42.652   -2.625   45.961
H   41.795   -1.767   47.358
H   47.660   -1.697   45.202
H   47.653   -3.306   46.041
H   47.960   -2.049   47.019
H   49.629   1.927   46.422
H   49.334   4.464   47.879
H   49.130   0.942   48.783
H   49.229   2.638   49.416
H   50.566   2.057   48.690
H   50.389   5.474   46.192
H   49.420   4.761   44.959
H   51.404   2.663   45.625
H   52.173   4.135   45.254
H   50.953   3.518   44.177
H   45.879   9.606   47.372
H   46.060   9.397   45.545
H   47.165   8.592   46.683
H   40.869   7.480   46.325
H   37.796   8.276   48.848
H   39.112   8.108   50.091
H   38.176   6.742   49.628
H   38.849   6.078   40.742
H   37.868   4.561   40.846
H   40.626   4.071   40.136
H   37.987   5.102   37.091
H   38.920   6.582   37.602
H   37.706   5.839   38.685
H   40.972   4.769   36.836
H   39.808   3.391   36.817
H   41.637   2.101   37.243
H   40.970   2.537   38.818
H   43.125   3.293   39.395
H   42.769   4.602   38.280
H   43.667   2.327   36.656
H   45.744   2.516   38.738
H   45.588   1.391   37.269
H   44.603   1.219   38.616
H   45.807   3.743   36.491
H   44.963   5.025   37.230
H   44.035   5.616   35.293
H   43.165   4.062   35.207
H   46.159   4.376   34.468
H   44.993   5.255   33.537
H   44.065   2.556   33.659
H   46.895   2.446   33.692
H   46.225   1.885   32.139
H   45.571   1.165   33.579
H   44.866   2.900   31.001
H   45.126   4.524   31.559
H   42.556   4.392   32.159
H   42.728   3.119   30.907
H   43.654   6.003   30.620
H   42.070   5.570   30.153
H   44.215   3.752   29.119
H   42.966   4.783   26.830
H   41.649   4.792   28.043
H   42.616   3.313   27.813
H   44.507   6.017   27.361
H   45.755   5.240   28.244
H   44.905   6.512   29.021
