140
2
Mg   17.113   -1.765   27.253
C   16.106   0.381   30.065
C   19.026   -3.454   29.633
C   18.180   -3.529   24.823
C   15.430   0.354   25.173
N   17.485   -1.486   29.643
C   16.895   -0.649   30.472
C   17.362   -0.927   31.879
C   18.404   -2.107   31.786
C   18.310   -2.447   30.264
C   19.784   -1.749   32.338
C   16.151   -1.296   32.739
C   16.206   -1.060   34.194
C   17.581   -0.615   34.858
O   18.092   0.542   34.799
O   18.141   -1.644   35.487
N   18.385   -3.308   27.253
C   19.104   -3.872   28.276
C   19.858   -5.023   27.789
C   19.577   -5.141   26.380
C   18.684   -4.003   26.076
C   20.606   -6.009   28.696
C   20.126   -6.117   25.311
O   19.967   -5.982   24.079
C   20.892   -7.268   25.771
N   17.036   -1.449   25.229
C   17.426   -2.450   24.409
C   16.990   -2.172   22.954
C   15.725   -1.276   23.188
C   16.062   -0.735   24.585
C   18.080   -1.629   22.003
C   14.330   -2.059   23.376
C   13.028   -1.269   22.923
N   16.041   -0.027   27.493
C   15.339   0.702   26.545
C   14.644   1.831   27.144
C   14.969   1.751   28.486
C   15.805   0.643   28.708
C   13.818   2.925   26.468
C   14.695   2.434   29.808
O   14.006   3.435   30.114
C   15.444   1.583   30.793
C   16.345   2.516   31.593
O   17.315   3.146   31.091
O   15.939   2.536   32.933
C   16.855   3.387   33.743
C   19.430   -1.454   36.239
C   19.616   -2.508   37.366
C   20.152   -2.493   38.565
C   20.639   -1.217   39.270
C   19.927   -3.719   39.441
C   21.145   -4.625   39.505
C   20.897   -5.981   38.845
C   22.199   -6.433   38.152
C   21.753   -7.511   37.118
C   23.113   -7.137   39.186
C   24.491   -6.531   39.340
C   24.987   -6.503   40.879
C   25.863   -7.805   41.358
C   24.992   -8.686   42.136
C   27.118   -7.346   42.215
C   28.493   -7.840   41.745
C   29.213   -8.852   42.722
C   28.667   -10.274   42.452
C   29.216   -10.957   41.181
C   28.961   -11.149   43.693
H   19.578   -4.017   30.388
H   18.515   -4.137   23.980
H   14.790   0.977   24.545
H   17.767   0.041   32.173
H   18.086   -3.011   32.306
H   20.535   -1.873   31.558
H   19.950   -2.510   33.101
H   19.877   -0.800   32.867
H   15.992   -2.370   32.636
H   15.318   -0.757   32.288
H   15.810   -1.895   34.771
H   15.579   -0.185   34.369
H   20.028   -6.929   28.786
H   20.614   -5.618   29.714
H   21.601   -6.236   28.315
H   20.322   -7.807   26.527
H   21.841   -6.974   26.218
H   21.082   -7.951   24.943
H   16.656   -3.130   22.557
H   15.653   -0.490   22.437
H   17.669   -0.663   21.710
H   18.264   -2.348   21.205
H   18.990   -1.390   22.554
H   14.247   -2.260   24.444
H   14.366   -2.990   22.812
H   12.828   -1.557   21.891
H   13.068   -0.181   22.967
H   12.230   -1.416   23.652
H   13.295   2.563   25.583
H   14.525   3.660   26.082
H   13.149   3.356   27.213
H   14.709   1.216   31.509
H   16.532   4.421   33.867
H   17.822   3.463   33.246
H   16.949   2.964   34.743
H   19.363   -0.526   36.806
H   20.342   -1.421   35.643
H   19.204   -3.475   37.076
H   21.726   -1.279   39.207
H   20.332   -1.222   40.316
H   20.283   -0.355   38.707
H   19.085   -4.266   39.018
H   19.618   -3.283   40.391
H   21.242   -4.885   40.559
H   22.115   -4.186   39.271
H   20.092   -5.897   38.115
H   20.465   -6.737   39.500
H   22.606   -5.575   37.616
H   22.580   -7.834   36.486
H   21.179   -7.037   36.321
H   21.182   -8.296   37.614
H   23.274   -8.172   38.885
H   22.658   -7.069   40.174
H   24.613   -5.508   38.985
H   25.072   -7.209   38.715
H   24.122   -6.387   41.531
H   25.663   -5.658   41.012
H   26.157   -8.416   40.504
H   25.380   -8.920   43.128
H   24.911   -9.658   41.651
H   24.002   -8.312   42.397
H   26.988   -7.518   43.284
H   27.163   -6.260   42.289
H   29.136   -6.960   41.775
H   28.332   -8.249   40.747
H   28.991   -8.542   43.743
H   30.254   -8.840   42.398
H   27.583   -10.267   42.345
H   30.043   -10.404   40.737
H   28.480   -10.873   40.382
H   29.527   -11.984   41.377
H   27.984   -11.500   44.023
H   29.322   -10.622   44.576
H   29.706   -11.938   43.584
