140
4
Mg   46.715   35.058   27.484
C   44.788   33.108   29.705
C   46.850   37.551   29.830
C   48.015   37.066   25.054
C   46.035   32.520   25.045
N   45.945   35.314   29.500
C   45.384   34.252   30.247
C   45.453   34.652   31.830
C   45.519   36.221   31.632
C   46.205   36.386   30.251
C   44.102   36.897   31.644
C   46.858   34.115   32.384
C   46.789   33.868   33.914
C   45.695   34.668   34.680
O   44.593   34.252   35.014
O   46.071   35.929   35.063
N   47.414   37.029   27.480
C   47.509   37.852   28.588
C   48.259   38.997   28.279
C   48.413   38.906   26.864
C   47.969   37.635   26.415
C   48.510   40.166   29.252
C   49.082   39.897   25.941
O   49.342   39.648   24.798
C   49.196   41.287   26.514
N   47.043   34.881   25.373
C   47.610   35.836   24.564
C   47.932   35.240   23.147
C   47.364   33.717   23.264
C   46.773   33.700   24.649
C   47.330   36.022   21.980
C   48.469   32.584   22.998
C   48.214   31.456   21.949
N   45.585   33.251   27.363
C   45.507   32.318   26.360
C   44.853   31.083   26.838
C   44.396   31.435   28.084
C   44.940   32.706   28.384
C   44.706   29.802   26.125
C   43.744   30.882   29.222
O   43.187   29.841   29.412
C   43.967   32.001   30.336
C   44.604   31.351   31.437
O   45.796   31.150   31.579
O   43.748   30.954   32.357
C   44.195   30.831   33.786
C   45.119   36.647   35.928
C   46.053   37.576   36.758
C   46.088   38.011   38.039
C   44.924   37.705   38.982
C   47.249   38.761   38.523
C   47.009   40.257   38.590
C   48.161   41.054   38.033
C   47.759   42.501   37.607
C   48.250   42.913   36.199
C   48.344   43.539   38.654
C   47.232   44.317   39.344
C   47.895   45.328   40.361
C   47.590   46.755   39.867
C   48.702   47.767   40.184
C   46.211   47.325   40.319
C   45.270   47.770   39.077
C   44.423   46.532   38.652
C   42.904   46.877   38.690
C   42.325   47.043   40.054
C   42.247   45.789   37.858
H   46.933   38.310   30.610
H   48.571   37.661   24.327
H   46.022   31.697   24.327
H   44.565   34.337   32.377
H   46.127   36.789   32.336
H   44.161   37.764   32.303
H   43.394   36.190   32.076
H   43.867   37.258   30.643
H   47.711   34.789   32.296
H   47.099   33.225   31.803
H   47.757   34.239   34.252
H   46.705   32.781   33.926
H   48.144   39.975   30.261
H   48.078   41.143   29.036
H   49.583   40.338   29.336
H   49.513   41.930   25.693
H   49.953   41.253   27.297
H   48.264   41.692   26.909
H   49.017   35.150   23.105
H   46.498   33.529   22.629
H   48.102   36.374   21.295
H   46.928   36.918   22.454
H   46.578   35.409   21.485
H   48.748   32.062   23.914
H   49.368   33.091   22.645
H   49.032   31.287   21.249
H   47.388   31.653   21.265
H   48.001   30.536   22.493
H   45.515   29.599   25.423
H   43.753   29.675   25.613
H   44.804   28.965   26.816
H   43.034   32.496   30.606
H   43.713   29.891   34.055
H   43.779   31.629   34.401
H   45.260   30.863   34.015
H   44.611   36.051   36.686
H   44.420   37.257   35.357
H   46.854   37.837   36.066
H   45.203   36.829   39.567
H   44.041   37.549   38.363
H   44.667   38.524   39.654
H   48.131   38.556   37.915
H   47.430   38.340   39.512
H   46.956   40.498   39.652
H   46.000   40.411   38.208
H   48.537   40.567   37.133
H   48.936   41.061   38.800
H   46.672   42.570   37.575
H   47.959   43.953   36.049
H   47.772   42.283   35.449
H   49.335   42.814   36.229
H   49.010   44.286   38.224
H   48.834   42.911   39.398
H   46.613   43.575   39.848
H   46.687   44.719   38.490
H   48.943   45.057   40.487
H   47.433   45.139   41.329
H   47.597   46.529   38.801
H   49.507   47.547   39.482
H   49.166   47.514   41.138
H   48.407   48.814   40.241
H   46.305   48.271   40.852
H   45.579   46.683   40.933
H   45.876   48.061   38.218
H   44.608   48.591   39.353
H   44.595   45.639   39.252
H   44.723   46.282   37.634
H   42.548   47.715   38.092
H   42.337   48.090   40.359
H   42.985   46.472   40.707
H   41.312   46.646   39.996
H   41.804   44.980   38.438
H   42.828   45.270   37.096
H   41.408   46.235   37.324
