140
8
Mg   8.430   48.638   24.907
C   6.184   48.825   27.572
C   10.841   49.767   26.966
C   10.496   48.692   22.208
C   5.727   48.303   22.767
N   8.434   49.205   26.921
C   7.435   49.193   27.885
C   8.055   49.389   29.342
C   9.412   50.104   29.023
C   9.587   49.699   27.511
C   9.362   51.656   29.267
C   8.246   47.987   30.114
C   7.814   47.934   31.610
C   8.089   46.673   32.404
O   8.554   45.596   31.966
O   7.741   46.890   33.717
N   10.484   49.011   24.688
C   11.323   49.490   25.649
C   12.646   49.530   25.152
C   12.613   48.918   23.849
C   11.163   48.877   23.534
C   13.816   49.940   25.884
C   13.761   48.609   22.936
O   13.590   48.171   21.829
C   15.249   48.653   23.347
N   8.170   48.526   22.840
C   9.144   48.500   21.964
C   8.549   48.516   20.470
C   7.094   48.174   20.710
C   6.950   48.321   22.207
C   8.775   49.997   19.928
C   6.699   46.741   20.265
C   5.524   46.632   19.323
N   6.321   48.640   25.053
C   5.371   48.505   24.129
C   4.008   48.461   24.769
C   4.268   48.653   26.154
C   5.706   48.615   26.265
C   2.730   48.590   23.892
C   3.688   48.671   27.459
O   2.517   48.605   27.814
C   4.892   48.780   28.491
C   4.911   47.573   29.372
O   5.415   46.483   29.177
O   4.191   47.883   30.500
C   3.921   46.846   31.463
C   8.159   45.764   34.599
C   8.364   46.344   35.928
C   7.338   46.541   36.827
C   5.861   46.207   36.671
C   7.726   46.911   38.284
C   8.841   46.104   39.020
C   10.212   46.761   38.987
C   10.912   46.686   40.348
C   10.780   48.054   41.131
C   12.459   46.269   40.204
C   12.852   44.785   40.440
C   14.108   44.742   41.308
C   14.349   43.518   42.135
C   15.312   42.492   41.455
C   14.978   43.969   43.512
C   13.986   44.173   44.692
C   13.934   45.603   45.347
C   12.488   46.221   45.465
C   11.778   46.149   44.065
C   12.462   47.709   45.939
H   11.591   50.026   27.717
H   11.143   48.977   21.376
H   4.913   48.053   22.084
H   7.499   50.121   29.927
H   10.261   49.890   29.672
H   8.573   51.934   29.966
H   9.114   52.172   28.339
H   10.279   51.946   29.780
H   9.327   47.878   30.197
H   7.904   47.251   29.387
H   6.744   48.138   31.644
H   8.372   48.773   32.025
H   13.484   50.646   26.645
H   14.645   50.404   25.349
H   14.297   49.093   26.374
H   15.548   49.660   23.639
H   15.770   48.291   22.461
H   15.278   47.813   24.040
H   9.000   47.783   19.802
H   6.438   48.940   20.295
H   7.841   50.252   19.427
H   9.481   49.932   19.100
H   9.104   50.771   20.621
H   6.478   46.153   21.156
H   7.534   46.201   19.819
H   5.882   45.974   18.531
H   5.271   47.566   18.822
H   4.623   46.228   19.785
H   2.996   48.140   22.935
H   2.384   49.610   23.722
H   1.965   48.141   24.526
H   4.928   49.698   29.077
H   3.219   47.067   32.267
H   4.853   46.641   31.990
H   3.597   45.891   31.049
H   9.154   45.411   34.330
H   7.492   44.902   34.586
H   9.373   46.596   36.256
H   5.740   45.842   35.651
H   5.357   47.167   36.786
H   5.465   45.569   37.461
H   6.821   46.939   38.890
H   8.062   47.945   38.204
H   8.999   45.223   38.398
H   8.404   45.887   39.995
H   10.103   47.745   38.531
H   10.687   46.146   38.222
H   10.354   45.992   40.978
H   10.333   47.960   42.121
H   10.081   48.701   40.602
H   11.676   48.672   41.084
H   13.141   46.991   40.652
H   12.696   46.269   39.140
H   13.008   44.243   39.507
H   12.056   44.290   40.997
H   14.213   45.669   41.871
H   15.005   44.884   40.706
H   13.385   43.011   42.190
H   16.321   42.546   41.863
H   15.358   42.652   40.377
H   15.024   41.477   41.729
H   15.452   44.939   43.362
H   15.715   43.241   43.853
H   14.207   43.396   45.424
H   12.980   43.976   44.322
H   14.563   46.334   44.837
H   14.182   45.455   46.398
H   11.977   45.592   46.195
H   12.423   46.092   43.188
H   11.064   46.960   43.918
H   11.114   45.292   44.180
H   12.053   47.760   46.949
H   11.862   48.350   45.293
H   13.431   48.200   46.026
