140
5
Mg   -2.376   34.135   26.716
C   -3.497   32.389   29.716
C   -0.796   36.320   28.734
C   -2.222   36.124   24.060
C   -4.267   31.756   24.944
N   -2.259   34.363   29.010
C   -2.590   33.466   29.980
C   -2.011   33.863   31.382
C   -1.358   35.239   31.076
C   -1.397   35.299   29.514
C   -1.811   36.520   31.806
C   -1.067   32.799   32.038
C   -1.540   32.231   33.384
C   -0.624   32.418   34.603
O   0.487   31.822   34.649
O   -1.024   33.313   35.584
N   -1.512   35.921   26.399
C   -0.894   36.638   27.351
C   -0.432   37.869   26.748
C   -0.862   37.940   25.386
C   -1.595   36.629   25.230
C   0.446   38.897   27.468
C   -0.595   39.106   24.330
O   -1.052   39.062   23.172
C   0.191   40.338   24.717
N   -3.114   33.957   24.786
C   -2.858   34.917   23.817
C   -3.345   34.494   22.439
C   -3.897   33.026   22.792
C   -3.758   32.861   24.310
C   -4.325   35.523   21.912
C   -3.164   31.833   22.083
C   -3.890   31.084   20.979
N   -3.675   32.466   27.173
C   -4.319   31.552   26.311
C   -5.019   30.523   27.066
C   -4.735   30.814   28.407
C   -3.942   32.006   28.415
C   -5.671   29.313   26.495
C   -4.912   30.350   29.681
O   -5.466   29.367   30.155
C   -4.082   31.300   30.625
C   -5.066   31.796   31.677
O   -6.003   32.585   31.452
O   -4.867   31.237   32.910
C   -5.697   31.602   34.038
C   -0.078   33.333   36.718
C   -0.730   34.025   37.889
C   -0.163   34.596   38.932
C   1.308   34.495   39.188
C   -1.085   35.532   39.878
C   -0.901   35.478   41.404
C   0.336   36.299   41.887
C   -0.024   37.418   43.006
C   -0.221   38.852   42.439
C   1.112   37.508   44.096
C   0.543   37.231   45.498
C   1.699   36.966   46.483
C   2.085   35.431   46.488
C   1.139   34.698   47.467
C   3.604   35.301   46.946
C   4.653   35.720   45.884
C   5.364   34.380   45.321
C   5.756   34.535   43.787
C   4.822   33.991   42.667
C   7.178   33.903   43.659
H   -0.156   36.933   29.371
H   -2.164   36.892   23.287
H   -4.778   30.962   24.396
H   -2.932   34.059   31.931
H   -0.312   35.204   31.379
H   -2.594   36.179   32.484
H   -2.153   37.208   31.033
H   -1.092   37.029   32.448
H   -0.063   33.178   32.228
H   -1.022   32.023   31.274
H   -1.699   31.156   33.299
H   -2.536   32.654   33.518
H   1.509   38.890   27.226
H   0.370   38.825   28.553
H   0.024   39.886   27.285
H   -0.428   41.025   25.294
H   0.561   40.712   23.762
H   1.057   40.190   25.362
H   -2.519   34.378   21.737
H   -4.970   32.978   22.611
H   -5.333   35.193   22.166
H   -4.155   35.646   20.842
H   -4.185   36.525   22.316
H   -3.048   31.052   22.835
H   -2.150   32.104   21.791
H   -4.200   30.128   21.400
H   -3.189   30.887   20.167
H   -4.807   31.583   20.668
H   -5.383   29.030   25.482
H   -6.748   29.470   26.449
H   -5.460   28.625   27.314
H   -3.258   30.812   31.145
H   -5.239   32.500   34.452
H   -5.684   30.783   34.757
H   -6.715   31.896   33.782
H   0.847   33.856   36.474
H   0.116   32.367   37.184
H   -1.815   34.059   37.790
H   1.914   33.951   38.463
H   1.399   34.028   40.169
H   1.583   35.547   39.257
H   -2.160   35.454   39.712
H   -0.970   36.564   39.547
H   -0.840   34.451   41.762
H   -1.798   35.933   41.825
H   0.855   36.774   41.054
H   0.999   35.507   42.236
H   -0.989   37.216   43.470
H   0.572   39.595   42.521
H   -0.965   39.306   43.094
H   -0.593   38.892   41.415
H   1.544   38.508   44.056
H   1.853   36.728   43.923
H   -0.126   36.372   45.552
H   -0.011   38.051   45.956
H   1.581   37.372   47.488
H   2.583   37.490   46.120
H   1.802   34.952   45.551
H   1.337   33.637   47.620
H   0.204   34.709   46.907
H   1.049   35.282   48.383
H   3.642   34.212   46.983
H   3.761   35.847   47.876
H   5.420   36.292   46.406
H   4.260   36.306   45.052
H   4.669   33.543   45.389
H   6.212   34.225   45.988
H   5.885   35.598   43.583
H   4.778   34.728   41.866
H   3.838   33.997   43.135
H   4.949   32.982   42.273
H   7.973   34.630   43.495
H   7.295   33.149   42.881
H   7.302   33.199   44.483
