140
9
Mg   8.939   47.370   24.413
C   6.848   47.566   27.193
C   11.546   48.490   26.267
C   10.729   47.262   21.627
C   5.982   47.155   22.402
N   9.154   47.788   26.482
C   8.212   47.868   27.441
C   8.742   48.407   28.782
C   10.111   48.979   28.298
C   10.298   48.411   26.898
C   10.055   50.554   28.241
C   8.886   47.339   29.871
C   8.039   47.611   31.112
C   8.041   46.401   32.125
O   7.807   45.249   31.812
O   8.124   46.777   33.450
N   10.946   47.788   24.033
C   11.871   48.143   24.934
C   13.154   48.253   24.259
C   12.931   47.828   22.941
C   11.487   47.604   22.820
C   14.457   48.617   24.900
C   13.850   47.657   21.811
O   13.492   47.172   20.754
C   15.352   47.857   22.080
N   8.374   47.391   22.270
C   9.305   47.171   21.362
C   8.718   46.783   19.996
C   7.169   46.687   20.294
C   7.170   47.067   21.742
C   9.115   47.807   18.828
C   6.585   45.279   19.943
C   5.248   45.240   19.218
N   6.872   47.243   24.714
C   5.826   47.248   23.793
C   4.522   47.126   24.469
C   4.887   47.302   25.860
C   6.282   47.414   25.936
C   3.231   46.924   23.828
C   4.351   47.288   27.210
O   3.206   47.280   27.614
C   5.634   47.536   28.109
C   5.586   46.360   29.024
O   6.276   45.384   29.016
O   4.654   46.623   29.999
C   4.702   45.720   31.210
C   8.046   45.638   34.444
C   8.519   46.199   35.831
C   7.817   46.274   37.013
C   6.332   45.895   37.220
C   8.355   46.991   38.217
C   9.105   46.186   39.221
C   10.589   46.349   39.235
C   11.070   46.955   40.604
C   11.017   48.479   40.617
C   12.463   46.472   40.818
C   12.556   45.029   41.286
C   13.545   44.822   42.496
C   12.741   44.716   43.818
C   12.614   43.223   44.326
C   13.398   45.597   44.958
C   12.514   45.873   46.113
C   12.350   47.421   46.401
C   11.085   48.108   45.721
C   11.135   48.053   44.202
C   10.998   49.568   46.228
H   12.423   48.852   26.808
H   11.241   46.909   20.730
H   5.036   46.939   21.902
H   8.015   49.170   29.061
H   10.860   48.609   28.998
H   10.731   50.969   28.989
H   9.069   50.962   28.460
H   10.323   50.844   27.225
H   9.900   47.184   30.240
H   8.526   46.404   29.441
H   7.006   47.646   30.765
H   8.352   48.589   31.478
H   14.414   49.045   25.901
H   14.867   49.435   24.307
H   15.206   47.826   24.952
H   15.494   48.914   22.306
H   15.824   47.658   21.118
H   15.826   47.151   22.760
H   9.163   45.827   19.721
H   6.631   47.445   19.724
H   9.803   48.558   19.215
H   8.319   48.327   18.294
H   9.700   47.306   18.057
H   6.349   44.710   20.843
H   7.283   44.672   19.366
H   4.559   44.696   19.864
H   5.446   44.713   18.285
H   4.925   46.219   18.864
H   2.371   47.140   24.462
H   3.223   45.940   23.359
H   3.208   47.610   22.981
H   5.574   48.453   28.695
H   5.244   46.311   31.948
H   5.072   44.719   30.986
H   3.700   45.774   31.635
H   8.533   44.720   34.115
H   7.001   45.337   34.522
H   9.518   46.637   35.831
H   6.302   44.968   37.793
H   5.930   45.489   36.292
H   5.778   46.714   37.681
H   7.492   47.361   38.771
H   8.832   47.903   37.857
H   8.773   45.154   39.110
H   8.690   46.437   40.197
H   10.857   47.065   38.458
H   10.957   45.339   39.052
H   10.424   46.646   41.425
H   11.985   48.930   40.401
H   10.517   48.940   41.469
H   10.341   48.701   39.791
H   12.967   47.087   41.564
H   12.994   46.578   39.872
H   12.923   44.342   40.524
H   11.527   44.719   41.472
H   14.310   45.596   42.571
H   14.110   43.942   42.189
H   11.685   44.952   43.691
H   11.563   43.041   44.551
H   13.315   42.940   45.111
H   12.729   42.504   43.515
H   13.785   46.507   44.500
H   14.255   45.047   45.346
H   12.795   45.502   47.099
H   11.557   45.356   46.041
H   13.266   47.920   46.085
H   12.427   47.541   47.481
H   10.253   47.440   45.945
H   12.120   47.904   43.759
H   10.889   49.031   43.787
H   10.395   47.313   43.897
H   11.586   50.209   45.571
H   11.307   49.476   47.269
H   9.973   49.834   45.970
