140
2
Mg   6.856   57.357   42.148
C   5.308   54.190   41.773
C   9.730   55.995   40.854
C   8.081   60.386   42.005
C   3.559   58.611   42.767
N   7.393   55.396   41.412
C   6.656   54.277   41.417
C   7.475   53.015   40.844
C   8.954   53.614   41.162
C   8.667   55.101   41.131
C   9.565   53.118   42.477
C   7.209   52.757   39.380
C   7.469   51.315   38.812
C   8.749   51.190   37.965
O   9.932   51.377   38.431
O   8.552   50.946   36.629
N   8.607   58.116   41.453
C   9.684   57.399   40.949
C   10.818   58.320   40.720
C   10.335   59.599   41.073
C   8.998   59.392   41.575
C   11.996   57.999   39.951
C   11.185   60.857   41.070
O   12.347   60.772   40.784
C   10.653   62.176   41.441
N   5.884   59.284   42.148
C   6.710   60.322   42.317
C   5.877   61.590   42.515
C   4.499   61.023   42.836
C   4.615   59.579   42.537
C   6.423   62.557   43.673
C   3.280   61.658   42.005
C   2.012   62.014   42.895
N   4.900   56.619   42.488
C   3.643   57.201   42.744
C   2.664   56.176   42.999
C   3.349   55.041   42.647
C   4.650   55.330   42.314
C   1.239   56.301   43.435
C   3.163   53.661   42.537
O   2.156   52.970   42.793
C   4.484   53.046   41.834
C   4.049   52.547   40.554
O   3.472   53.309   39.774
O   3.949   51.202   40.530
C   3.244   50.743   39.363
C   9.807   50.684   35.826
C   9.795   51.379   34.422
C   8.712   51.788   33.728
C   7.228   51.504   34.052
C   9.011   52.394   32.318
C   9.505   53.905   32.453
C   9.287   54.773   31.212
C   9.572   56.253   31.619
C   8.298   57.064   31.758
C   10.540   56.733   30.582
C   12.112   56.565   31.022
C   12.976   57.770   30.771
C   14.149   57.442   29.822
C   15.501   57.407   30.604
C   14.078   58.473   28.636
C   14.553   57.861   27.312
C   13.370   57.783   26.313
C   13.592   58.704   25.060
C   13.378   60.179   25.533
C   12.602   58.326   23.900
H   10.720   55.636   40.566
H   8.607   61.279   42.348
H   2.639   59.058   43.149
H   7.320   52.182   41.529
H   9.471   53.431   40.220
H   9.045   52.252   42.886
H   9.387   53.890   43.225
H   10.538   52.688   42.241
H   7.778   53.474   38.788
H   6.205   52.988   39.025
H   6.578   50.989   38.275
H   7.620   50.626   39.643
H   11.726   57.098   39.399
H   12.879   57.802   40.557
H   12.298   58.698   39.171
H   10.482   62.256   42.515
H   9.735   62.322   40.871
H   11.464   62.829   41.119
H   5.823   62.088   41.546
H   4.391   60.983   43.920
H   5.767   62.507   44.542
H   6.423   63.538   43.198
H   7.422   62.282   44.011
H   2.946   60.920   41.275
H   3.566   62.567   41.477
H   1.321   61.253   42.530
H   1.587   62.957   42.551
H   2.209   61.953   43.965
H   0.954   55.656   44.266
H   0.664   56.188   42.516
H   1.144   57.345   43.733
H   4.804   52.263   42.521
H   3.553   51.200   38.423
H   2.184   50.977   39.465
H   3.378   49.661   39.335
H   9.974   49.626   35.621
H   10.657   51.101   36.366
H   10.750   51.704   34.007
H   6.846   52.188   34.811
H   7.142   50.467   34.376
H   6.724   51.577   33.088
H   8.068   52.304   31.779
H   9.808   51.766   31.919
H   10.579   53.769   32.582
H   8.966   54.167   33.363
H   8.242   54.728   30.904
H   9.879   54.355   30.398
H   9.983   56.226   32.628
H   8.608   58.108   31.709
H   7.803   57.004   32.727
H   7.525   56.768   31.049
H   10.383   57.780   30.322
H   10.489   56.247   29.607
H   12.510   55.719   30.462
H   12.219   56.243   32.058
H   13.346   57.952   31.780
H   12.331   58.623   30.561
H   13.965   56.481   29.341
H   16.166   57.612   29.765
H   15.666   56.459   31.116
H   15.661   58.122   31.410
H   14.763   59.306   28.791
H   13.069   58.883   28.628
H   14.936   56.841   27.346
H   15.382   58.465   26.943
H   12.463   58.250   26.698
H   13.152   56.739   26.085
H   14.544   58.390   24.631
H   13.086   60.839   24.716
H   14.233   60.530   26.110
H   12.507   60.276   26.181
H   11.781   59.037   23.810
H   12.182   57.345   24.125
H   13.090   58.389   22.927
