140
17
Mg   41.162   41.718   26.640
C   40.305   43.696   29.340
C   42.412   39.405   29.037
C   42.803   39.959   24.264
C   40.877   44.339   24.539
N   41.176   41.523   29.022
C   40.783   42.458   29.850
C   40.971   42.022   31.322
C   41.691   40.640   31.156
C   41.836   40.520   29.665
C   42.986   40.580   31.924
C   39.655   41.955   32.126
C   39.597   41.269   33.478
C   39.815   42.282   34.735
O   40.502   43.293   34.822
O   39.064   41.987   35.818
N   42.306   39.845   26.681
C   42.570   38.982   27.743
C   43.158   37.741   27.271
C   43.234   37.945   25.855
C   42.822   39.335   25.569
C   43.604   36.628   28.193
C   43.692   36.974   24.729
O   43.756   37.254   23.507
C   44.074   35.542   25.142
N   41.966   42.173   24.689
C   42.464   41.206   23.864
C   42.327   41.684   22.410
C   41.608   43.078   22.500
C   41.357   43.134   24.005
C   43.659   41.697   21.571
C   40.311   43.298   21.545
C   38.929   43.143   22.188
N   40.536   43.599   26.766
C   40.457   44.608   25.884
C   39.974   45.847   26.521
C   39.889   45.524   27.861
C   40.220   44.114   27.996
C   39.851   47.159   25.801
C   39.531   46.028   29.118
O   39.142   47.103   29.412
C   39.760   44.894   30.159
C   40.707   45.413   31.196
O   41.962   45.439   30.983
O   40.119   45.945   32.330
C   41.067   46.461   33.395
C   39.250   42.816   37.080
C   38.722   42.042   38.251
C   38.292   42.488   39.482
C   38.496   43.982   39.851
C   37.560   41.571   40.454
C   38.650   40.894   41.325
C   38.320   39.494   41.721
C   39.159   39.009   42.980
C   40.149   37.923   42.572
C   38.181   38.634   44.190
C   38.548   39.371   45.468
C   38.650   38.411   46.624
C   37.283   37.891   47.125
C   36.961   38.716   48.397
C   37.290   36.410   47.558
C   35.916   35.779   47.281
C   35.795   35.051   45.966
C   34.697   35.485   45.001
C   35.275   35.527   43.536
C   33.403   34.687   45.180
H   42.830   38.653   29.710
H   43.070   39.426   23.349
H   40.800   45.096   23.756
H   41.734   42.699   31.704
H   41.123   39.728   31.340
H   43.789   40.907   31.264
H   43.225   39.523   32.045
H   42.992   41.014   32.924
H   38.907   41.525   31.460
H   39.382   42.952   32.471
H   40.288   40.440   33.630
H   38.637   40.759   33.557
H   42.938   35.802   27.944
H   43.508   36.830   29.260
H   44.599   36.247   27.965
H   44.781   35.480   25.969
H   44.551   35.032   24.306
H   43.075   35.117   25.247
H   41.631   41.016   21.902
H   42.249   43.944   22.334
H   43.687   42.367   20.712
H   43.824   40.711   21.134
H   44.563   41.966   22.118
H   40.393   42.577   20.732
H   40.355   44.321   21.171
H   38.308   42.489   21.575
H   38.477   44.135   22.173
H   38.955   42.813   23.226
H   40.143   47.836   26.604
H   38.818   47.406   25.556
H   40.523   47.260   24.949
H   38.779   44.825   30.628
H   42.089   46.452   33.015
H   41.162   45.791   34.250
H   40.821   47.498   33.622
H   38.676   43.740   37.025
H   40.296   43.055   37.276
H   38.656   40.982   38.002
H   37.479   44.346   40.001
H   39.013   44.569   39.092
H   38.931   43.965   40.850
H   37.047   40.831   39.840
H   36.902   42.134   41.117
H   38.707   41.573   42.175
H   39.609   40.794   40.817
H   38.544   38.835   40.883
H   37.238   39.416   41.821
H   39.667   39.934   43.253
H   39.812   37.246   41.787
H   40.517   37.362   43.431
H   41.037   38.465   42.246
H   37.983   37.579   44.375
H   37.213   39.075   43.949
H   37.848   40.172   45.710
H   39.560   39.761   45.359
H   39.178   38.836   47.477
H   39.266   37.568   46.310
H   36.481   38.102   46.417
H   37.291   38.319   49.358
H   35.936   39.005   48.628
H   37.445   39.691   48.335
H   37.523   36.214   48.604
H   38.089   35.858   47.063
H   35.180   36.567   47.438
H   35.682   34.960   47.962
H   35.465   34.025   46.127
H   36.769   34.852   45.519
H   34.517   36.490   45.382
H   35.386   36.588   43.309
H   34.487   35.237   42.841
H   36.188   34.970   43.329
H   33.294   34.101   46.092
H   33.195   34.008   44.353
H   32.518   35.324   45.177
