140
34
Mg   25.823   49.741   26.740
C   23.665   50.841   29.333
C   28.077   48.816   29.003
C   27.594   49.008   24.097
C   23.498   51.641   24.497
N   25.941   49.952   28.967
C   24.859   50.235   29.771
C   25.277   49.976   31.248
C   26.797   49.580   31.043
C   27.039   49.501   29.608
C   27.907   50.453   31.739
C   24.373   48.967   32.011
C   23.927   49.459   33.415
C   25.100   49.935   34.449
O   25.749   50.928   34.348
O   25.205   49.031   35.502
N   27.562   49.020   26.648
C   28.344   48.484   27.629
C   29.459   47.805   27.050
C   29.336   47.867   25.676
C   28.143   48.702   25.423
C   30.333   47.098   27.916
C   30.263   47.231   24.646
O   30.134   47.280   23.404
C   31.564   46.560   25.137
N   25.632   50.433   24.567
C   26.518   49.793   23.738
C   26.259   50.279   22.273
C   24.906   51.148   22.478
C   24.584   51.017   23.914
C   27.476   50.988   21.713
C   23.812   50.693   21.490
C   23.378   49.228   21.412
N   23.954   50.969   26.788
C   23.139   51.608   25.843
C   21.999   52.265   26.477
C   22.130   51.956   27.905
C   23.320   51.161   28.014
C   20.948   53.108   25.801
C   21.554   52.135   29.188
O   20.586   52.840   29.454
C   22.521   51.400   30.220
C   22.954   52.353   31.274
O   23.868   53.150   31.157
O   21.965   52.393   32.292
C   22.221   53.324   33.414
C   25.968   49.537   36.649
C   25.620   48.784   37.923
C   26.048   49.073   39.162
C   27.151   50.099   39.523
C   25.600   48.217   40.309
C   26.417   46.908   40.428
C   25.633   45.656   40.869
C   26.324   44.778   42.025
C   26.464   43.301   41.434
C   25.568   44.848   43.381
C   26.169   45.863   44.306
C   25.149   46.638   45.245
C   25.883   47.433   46.334
C   25.207   47.152   47.716
C   25.866   48.993   46.049
C   27.199   49.589   46.189
C   27.719   50.052   44.831
C   28.338   51.505   44.782
C   27.349   52.486   44.129
C   29.735   51.599   44.064
H   28.723   48.370   29.762
H   28.170   48.704   23.220
H   22.789   52.241   23.922
H   25.221   50.917   31.796
H   26.939   48.573   31.436
H   27.457   51.076   32.512
H   28.384   51.104   31.006
H   28.585   49.690   32.122
H   24.915   48.040   32.192
H   23.506   48.815   31.368
H   23.378   48.607   33.816
H   23.208   50.279   33.422
H   30.160   47.275   28.977
H   31.338   47.468   27.717
H   30.247   46.019   27.789
H   32.176   47.199   25.773
H   32.038   46.157   24.241
H   31.331   45.677   25.732
H   26.062   49.429   21.620
H   25.047   52.217   22.319
H   27.981   50.361   20.979
H   28.129   51.321   22.520
H   27.129   51.913   21.254
H   24.226   51.041   20.543
H   22.919   51.285   21.690
H   22.384   49.154   21.852
H   24.140   48.655   21.941
H   23.219   48.966   20.366
H   20.058   53.047   26.426
H   20.694   52.642   24.849
H   21.304   54.123   25.621
H   21.988   50.593   30.722
H   22.705   54.235   33.061
H   22.737   52.907   34.279
H   21.244   53.715   33.699
H   25.771   50.589   36.854
H   27.037   49.475   36.445
H   24.878   47.990   37.836
H   26.639   50.983   39.902
H   27.852   50.383   38.739
H   27.843   49.671   40.248
H   24.550   47.932   40.248
H   25.697   48.858   41.185
H   27.227   47.090   41.136
H   26.708   46.693   39.400
H   25.430   45.058   39.980
H   24.615   45.908   41.165
H   27.347   45.101   42.221
H   25.856   42.561   41.955
H   27.492   42.966   41.577
H   26.213   43.245   40.375
H   25.580   43.887   43.897
H   24.514   45.087   43.242
H   26.701   46.602   43.706
H   26.969   45.391   44.876
H   24.426   45.915   45.622
H   24.654   47.348   44.583
H   26.933   47.176   46.475
H   25.614   47.865   48.432
H   25.305   46.135   48.095
H   24.139   47.269   47.531
H   25.264   49.472   46.821
H   25.333   49.317   45.155
H   27.933   48.881   46.574
H   27.272   50.368   46.948
H   26.893   49.909   44.134
H   28.561   49.402   44.593
H   28.483   51.977   45.754
H   27.895   53.175   43.486
H   26.846   53.114   44.865
H   26.576   51.979   43.551
H   29.596   52.043   43.079
H   30.063   50.582   43.847
H   30.516   52.133   44.606
