140
6
Mg   46.351   44.492   43.307
C   43.076   43.620   43.021
C   47.225   41.165   42.485
C   49.413   45.585   42.543
C   45.379   47.958   43.598
N   45.255   42.669   42.852
C   43.979   42.486   42.768
C   43.573   40.972   42.678
C   44.934   40.187   42.803
C   45.929   41.397   42.747
C   45.034   39.177   43.947
C   42.684   40.647   41.336
C   42.797   41.581   40.142
C   42.366   41.119   38.750
O   41.511   40.211   38.548
O   43.117   41.735   37.792
N   48.072   43.498   42.601
C   48.262   42.153   42.393
C   49.560   41.928   41.924
C   50.240   43.206   41.882
C   49.222   44.197   42.320
C   50.085   40.517   41.732
C   51.703   43.393   41.441
O   52.342   42.374   41.095
C   52.408   44.641   41.387
N   47.262   46.565   42.938
C   48.559   46.636   42.838
C   49.100   48.089   42.960
C   47.817   48.854   43.352
C   46.679   47.755   43.332
C   50.172   48.266   43.974
C   47.522   50.104   42.396
C   47.681   51.537   43.052
N   44.632   45.623   43.432
C   44.352   46.987   43.582
C   42.869   47.162   43.674
C   42.374   45.876   43.415
C   43.466   44.975   43.240
C   42.100   48.371   43.900
C   41.167   45.210   43.231
O   39.978   45.556   43.291
C   41.549   43.712   43.062
C   40.815   42.902   44.157
O   40.091   41.933   44.004
O   41.063   43.392   45.421
C   40.393   42.734   46.549
C   42.692   41.457   36.439
C   43.602   42.121   35.519
C   44.467   41.554   34.623
C   44.595   40.043   34.341
C   45.391   42.473   33.855
C   44.929   42.672   32.401
C   44.843   44.127   31.927
C   45.069   44.096   30.417
C   45.375   45.610   29.932
C   43.769   43.533   29.743
C   44.118   42.380   28.756
C   43.332   42.645   27.376
C   44.295   43.530   26.469
C   43.552   44.820   26.080
C   44.581   42.823   25.132
C   45.667   43.558   24.239
C   46.747   42.582   23.644
C   46.907   42.679   22.134
C   47.292   41.324   21.605
C   47.879   43.739   21.555
H   47.392   40.130   42.180
H   50.427   45.982   42.464
H   45.106   48.983   43.857
H   43.056   40.742   43.610
H   45.175   39.635   41.894
H   45.786   39.508   44.663
H   45.342   38.190   43.600
H   44.103   38.963   44.472
H   41.681   40.586   41.759
H   42.917   39.704   40.841
H   43.858   41.829   40.128
H   42.269   42.487   40.440
H   50.986   40.197   42.256
H   50.180   40.325   40.663
H   49.319   39.810   42.050
H   52.540   45.192   42.318
H   51.837   45.374   40.818
H   53.355   44.586   40.851
H   49.556   48.552   42.085
H   47.808   49.174   44.394
H   51.177   48.380   43.568
H   50.314   47.349   44.547
H   49.947   49.119   44.614
H   46.470   50.066   42.110
H   48.186   50.180   41.536
H   48.247   52.184   42.383
H   48.320   51.433   43.929
H   46.664   51.922   43.129
H   42.746   48.987   44.526
H   41.179   48.146   44.439
H   41.830   48.748   42.914
H   41.053   43.235   42.217
H   40.325   43.448   47.370
H   40.878   41.870   47.003
H   39.417   42.317   46.299
H   41.655   41.787   36.386
H   42.581   40.410   36.158
H   43.592   43.200   35.671
H   45.389   39.611   34.951
H   44.700   39.879   33.269
H   43.648   39.534   34.518
H   46.359   41.976   33.802
H   45.613   43.448   34.288
H   43.884   42.365   32.418
H   45.470   42.030   31.704
H   45.515   44.797   32.462
H   43.882   44.624   32.060
H   45.878   43.401   30.194
H   44.722   45.828   29.086
H   46.437   45.639   29.690
H   45.162   46.301   30.748
H   43.099   44.257   29.279
H   43.100   43.125   30.501
H   43.715   41.422   29.087
H   45.175   42.245   28.526
H   42.403   43.169   27.602
H   43.111   41.772   26.762
H   45.286   43.739   26.873
H   42.887   44.602   25.244
H   44.311   45.521   25.733
H   43.007   45.211   26.940
H   43.628   42.707   24.616
H   44.987   41.826   25.304
H   46.187   44.314   24.828
H   45.045   43.999   23.460
H   46.492   41.559   23.921
H   47.721   42.933   23.984
H   45.954   42.893   21.651
H   47.618   40.559   22.310
H   48.046   41.354   20.819
H   46.368   40.917   21.195
H   48.852   43.293   21.349
H   48.006   44.593   22.219
H   47.551   44.110   20.584
