140
15
Mg   2.721   0.153   44.702
C   5.631   2.199   43.967
C   0.846   2.243   42.808
C   0.304   -2.053   45.006
C   5.038   -2.285   45.924
N   3.221   1.914   43.391
C   4.400   2.598   43.285
C   4.303   3.776   42.303
C   2.769   4.052   42.302
C   2.229   2.659   42.857
C   2.441   5.344   43.149
C   4.985   3.432   40.923
C   6.163   4.280   40.377
C   6.365   4.398   38.877
O   6.848   5.377   38.257
O   5.976   3.272   38.262
N   0.829   0.166   44.076
C   0.158   1.132   43.378
C   -1.266   0.732   43.356
C   -1.502   -0.352   44.124
C   -0.053   -0.809   44.442
C   -2.207   1.628   42.563
C   -2.847   -0.958   44.578
O   -3.901   -0.444   44.203
C   -2.973   -2.132   45.500
N   2.741   -1.888   45.278
C   1.540   -2.561   45.378
C   1.767   -4.040   45.831
C   3.280   -4.069   46.141
C   3.704   -2.642   45.767
C   0.788   -4.557   46.971
C   4.088   -5.182   45.412
C   4.993   -5.980   46.403
N   4.881   -0.037   44.992
C   5.585   -1.029   45.643
C   6.987   -0.552   45.869
C   7.034   0.742   45.221
C   5.730   0.977   44.753
C   8.062   -1.353   46.527
C   7.875   1.928   44.976
O   9.038   2.187   45.350
C   7.012   2.872   44.086
C   7.011   4.223   44.710
O   7.879   5.035   44.539
O   5.785   4.438   45.412
C   5.605   5.870   45.830
C   5.905   3.343   36.821
C   4.941   2.328   36.217
C   5.225   1.232   35.452
C   6.556   0.816   34.889
C   4.000   0.458   34.919
C   3.566   0.823   33.446
C   2.118   0.577   33.198
C   1.405   1.851   32.676
C   0.865   2.760   33.780
C   0.316   1.432   31.635
C   0.088   2.513   30.554
C   -1.442   2.736   30.330
C   -1.583   3.973   29.427
C   -2.695   4.979   29.993
C   -2.005   3.458   28.064
C   -1.820   4.520   26.947
C   -1.003   4.128   25.683
C   -1.867   3.898   24.435
C   -2.090   2.422   24.081
C   -1.200   4.776   23.323
H   0.267   2.932   42.189
H   -0.518   -2.772   44.989
H   5.723   -3.013   46.362
H   4.862   4.595   42.754
H   2.476   4.120   41.254
H   1.586   5.176   43.804
H   2.139   6.078   42.402
H   3.305   5.771   43.657
H   4.288   3.398   40.085
H   5.342   2.402   40.950
H   7.076   3.832   40.768
H   6.106   5.292   40.778
H   -3.245   1.327   42.703
H   -1.905   1.729   41.521
H   -2.109   2.618   43.007
H   -2.174   -2.090   46.241
H   -2.755   -2.967   44.834
H   -4.013   -2.239   45.807
H   1.650   -4.652   44.936
H   3.474   -4.103   47.213
H   0.167   -3.790   47.433
H   1.434   -5.075   47.680
H   0.077   -5.238   46.502
H   4.769   -4.656   44.742
H   3.378   -5.759   44.820
H   4.309   -6.335   47.174
H   5.731   -5.342   46.887
H   5.417   -6.820   45.853
H   7.924   -1.711   47.548
H   8.857   -0.609   46.578
H   8.373   -2.258   46.007
H   7.420   3.037   43.089
H   6.529   6.448   45.847
H   5.142   5.927   46.815
H   5.000   6.324   45.045
H   6.899   3.237   36.386
H   5.827   4.324   36.353
H   3.876   2.373   36.447
H   6.909   -0.173   35.180
H   7.334   1.537   35.140
H   6.589   0.798   33.800
H   3.142   0.584   35.580
H   4.218   -0.602   35.046
H   4.095   0.115   32.808
H   3.861   1.832   33.156
H   1.613   0.270   34.114
H   2.004   -0.317   32.585
H   2.090   2.523   32.158
H   -0.225   2.785   33.777
H   1.343   3.739   33.761
H   1.110   2.410   34.783
H   -0.653   1.090   31.999
H   0.753   0.550   31.167
H   0.617   2.114   29.689
H   0.536   3.453   30.876
H   -2.176   2.655   31.132
H   -1.591   1.790   29.810
H   -0.684   4.585   29.362
H   -2.237   5.936   30.240
H   -3.320   4.607   30.805
H   -3.454   5.385   29.324
H   -3.000   3.019   27.992
H   -1.239   2.723   27.818
H   -1.431   5.415   27.433
H   -2.844   4.779   26.678
H   -0.599   3.148   25.936
H   -0.253   4.909   25.557
H   -2.859   4.322   24.587
H   -1.140   2.073   23.675
H   -2.717   2.514   23.194
H   -2.572   1.819   24.850
H   -1.548   4.471   22.336
H   -0.150   4.497   23.416
H   -1.337   5.852   23.433
