140
24
Mg   40.811   8.047   29.139
C   42.590   9.716   31.641
C   39.013   6.394   31.605
C   39.099   6.509   26.695
C   43.327   9.131   26.831
N   40.973   7.890   31.482
C   41.574   8.866   32.208
C   41.081   8.839   33.667
C   40.104   7.609   33.683
C   40.018   7.319   32.198
C   40.583   6.481   34.642
C   40.615   10.285   34.185
C   41.288   10.885   35.565
C   41.195   10.081   36.854
O   41.928   9.097   37.112
O   40.380   10.622   37.828
N   39.191   6.803   29.189
C   38.575   6.268   30.271
C   37.440   5.452   29.879
C   37.392   5.594   28.478
C   38.595   6.364   28.013
C   36.399   4.955   30.951
C   36.292   5.259   27.556
O   36.332   5.648   26.417
C   35.115   4.483   28.057
N   41.224   7.839   27.082
C   40.315   7.170   26.291
C   40.909   7.017   24.872
C   42.253   7.849   24.875
C   42.262   8.311   26.330
C   41.076   5.520   24.325
C   42.226   8.981   23.779
C   41.346   10.281   24.148
N   42.551   9.109   29.190
C   43.489   9.492   28.182
C   44.545   10.348   28.727
C   44.094   10.509   30.091
C   42.971   9.721   30.307
C   45.761   10.807   28.017
C   44.536   11.032   31.294
O   45.569   11.703   31.511
C   43.560   10.602   32.362
C   44.341   9.940   33.408
O   44.796   8.786   33.433
O   44.444   10.846   34.445
C   45.036   10.328   35.691
C   40.556   10.032   39.150
C   39.563   10.711   40.087
C   39.580   10.678   41.437
C   40.419   9.873   42.342
C   38.490   11.519   42.210
C   37.123   10.802   42.326
C   36.573   10.530   43.729
C   35.547   11.667   44.145
C   35.493   11.752   45.671
C   34.125   11.299   43.587
C   33.075   12.387   43.710
C   32.683   12.936   42.293
C   31.231   12.599   41.894
C   31.241   12.275   40.379
C   30.259   13.745   42.208
C   28.880   13.053   42.504
C   28.302   13.464   43.821
C   26.963   14.194   43.690
C   26.637   14.990   45.092
C   25.868   13.135   43.522
H   38.448   5.859   32.371
H   38.617   6.113   25.798
H   44.118   9.414   26.133
H   41.869   8.494   34.336
H   39.094   7.902   33.970
H   39.657   6.136   35.101
H   41.345   6.758   35.371
H   41.106   5.682   34.115
H   39.561   10.244   34.459
H   40.625   11.086   33.446
H   40.856   11.883   35.642
H   42.253   11.278   35.243
H   36.670   4.977   32.006
H   36.245   3.914   30.668
H   35.485   5.532   30.810
H   34.584   5.178   28.708
H   35.428   3.539   28.503
H   34.543   4.350   27.139
H   40.155   7.535   24.279
H   43.103   7.171   24.799
H   41.647   4.932   25.043
H   41.618   5.399   23.387
H   40.125   4.998   24.229
H   41.909   8.547   22.831
H   43.259   9.313   23.680
H   41.884   11.070   24.674
H   40.579   9.929   24.837
H   40.782   10.660   23.296
H   45.593   11.705   27.424
H   46.099   10.033   27.328
H   46.433   11.079   28.831
H   42.974   11.432   32.758
H   44.996   9.240   35.755
H   44.443   10.698   36.527
H   46.087   10.600   35.792
H   41.529   9.890   39.621
H   40.202   9.012   39.003
H   38.951   11.494   39.638
H   40.977   9.252   41.641
H   39.758   9.267   42.962
H   41.130   10.497   42.884
H   38.235   12.344   41.545
H   38.797   11.745   43.231
H   37.130   9.818   41.859
H   36.370   11.489   41.941
H   37.443   10.392   44.372
H   36.065   9.566   43.717
H   35.843   12.676   43.858
H   34.495   11.688   46.105
H   36.049   12.610   46.048
H   35.860   10.812   46.084
H   33.802   10.416   44.139
H   34.117   10.868   42.586
H   33.497   13.141   44.375
H   32.192   11.993   44.212
H   33.425   12.689   41.533
H   32.737   14.025   42.273
H   31.023   11.722   42.506
H   30.239   12.543   40.044
H   31.514   11.224   40.475
H   31.977   12.862   39.830
H   30.277   14.389   41.328
H   30.640   14.281   43.078
H   28.832   11.969   42.396
H   28.257   13.381   41.671
H   28.940   14.233   44.256
H   28.181   12.537   44.381
H   26.910   14.865   42.832
H   26.675   14.269   45.908
H   25.634   15.410   45.025
H   27.359   15.754   45.381
H   25.176   13.221   44.360
H   26.314   12.145   43.427
H   25.290   13.417   42.642
