140
3
Mg   0.516   7.550   26.269
C   1.582   9.408   29.000
C   0.853   4.690   28.254
C   0.072   5.712   23.540
C   0.213   10.446   24.476
N   1.007   7.067   28.322
C   1.304   8.071   29.290
C   1.242   7.423   30.671
C   1.398   5.854   30.411
C   1.041   5.844   28.878
C   2.725   5.146   30.701
C   0.019   7.917   31.499
C   0.392   8.292   33.009
C   1.127   7.268   33.791
O   2.324   7.211   34.138
O   0.281   6.190   33.952
N   0.321   5.450   25.946
C   0.498   4.431   26.900
C   0.425   3.164   26.162
C   0.123   3.405   24.827
C   0.140   4.925   24.708
C   0.664   1.841   26.871
C   -0.144   2.451   23.746
O   -0.203   2.805   22.592
C   -0.274   0.959   23.982
N   0.421   8.005   24.256
C   0.093   7.106   23.324
C   -0.417   7.782   22.018
C   -0.584   9.258   22.454
C   0.038   9.263   23.826
C   0.588   7.591   20.909
C   -2.051   9.858   22.418
C   -2.892   9.600   21.166
N   0.932   9.560   26.623
C   0.743   10.620   25.793
C   1.126   11.821   26.416
C   1.527   11.403   27.714
C   1.429   10.027   27.714
C   1.184   13.228   25.810
C   2.130   11.719   29.031
O   2.427   12.793   29.545
C   2.038   10.447   29.884
C   3.343   10.201   30.562
O   4.238   9.402   30.290
O   3.349   10.931   31.732
C   4.387   10.730   32.724
C   0.870   4.848   34.273
C   0.615   4.644   35.771
C   1.505   4.674   36.789
C   3.028   4.985   36.604
C   1.223   4.289   38.252
C   1.722   2.916   38.719
C   1.212   1.743   37.861
C   0.291   0.889   38.570
C   -0.957   0.454   37.756
C   0.914   -0.441   39.058
C   2.101   -0.277   40.045
C   3.266   -0.937   39.407
C   3.843   -2.189   40.127
C   2.745   -3.196   40.467
C   4.697   -1.873   41.353
C   6.112   -2.396   41.161
C   7.091   -1.286   41.420
C   8.564   -1.491   40.883
C   9.462   -2.030   41.979
C   9.041   -0.129   40.166
H   0.995   3.770   28.825
H   0.099   5.252   22.549
H   0.051   11.304   23.820
H   2.158   7.651   31.217
H   0.569   5.308   30.862
H   2.660   4.560   31.617
H   3.485   5.898   30.916
H   3.154   4.552   29.894
H   -0.624   7.037   31.525
H   -0.595   8.646   30.972
H   -0.600   8.564   33.371
H   0.950   9.224   33.096
H   1.348   1.225   26.287
H   -0.222   1.249   27.097
H   1.307   2.003   27.737
H   -0.389   0.419   23.043
H   -1.204   0.708   24.492
H   0.698   0.604   24.327
H   -1.368   7.281   21.835
H   -0.003   9.924   21.817
H   1.602   7.520   21.304
H   0.575   8.491   20.294
H   0.247   6.747   20.310
H   -1.957   10.913   22.675
H   -2.613   9.467   23.266
H   -2.506   8.925   20.402
H   -2.972   10.585   20.706
H   -3.888   9.310   21.498
H   1.639   13.895   26.542
H   0.166   13.496   25.527
H   1.741   13.171   24.875
H   1.277   10.684   30.628
H   4.229   9.985   33.504
H   4.503   11.671   33.261
H   5.341   10.395   32.316
H   1.873   4.672   33.885
H   0.210   4.134   33.780
H   -0.307   4.116   36.012
H   3.172   5.888   37.196
H   3.377   5.250   35.606
H   3.717   4.254   37.027
H   0.143   4.266   38.397
H   1.584   5.039   38.956
H   1.414   2.832   39.761
H   2.810   2.913   38.784
H   2.084   1.231   37.453
H   0.746   2.190   36.983
H   -0.129   1.425   39.420
H   -1.814   0.793   38.339
H   -0.954   -0.631   37.651
H   -1.080   0.934   36.785
H   1.126   -1.062   38.188
H   0.224   -1.158   39.502
H   2.029   -0.803   40.998
H   2.372   0.752   40.282
H   4.083   -0.251   39.183
H   3.000   -1.321   38.422
H   4.452   -2.698   39.381
H   2.286   -2.928   41.419
H   3.227   -4.156   40.648
H   2.035   -3.213   39.640
H   4.240   -2.545   42.079
H   4.474   -0.840   41.618
H   6.362   -2.936   40.247
H   6.289   -3.216   41.857
H   7.111   -1.330   42.509
H   6.776   -0.280   41.145
H   8.435   -2.185   40.053
H   8.959   -2.733   42.642
H   9.791   -1.157   42.544
H   10.344   -2.562   41.622
H   8.204   0.562   40.060
H   9.373   -0.419   39.169
H   9.835   0.294   40.781
