140
35
Mg   26.709   0.161   29.467
C   28.722   -0.041   32.454
C   23.941   0.657   31.254
C   25.090   0.253   26.504
C   29.787   -0.501   27.750
N   26.435   0.299   31.513
C   27.330   0.286   32.630
C   26.575   0.579   33.906
C   25.109   0.574   33.485
C   25.147   0.492   31.984
C   24.144   -0.465   34.069
C   27.121   1.755   34.768
C   26.418   1.802   36.230
C   27.186   1.351   37.498
O   28.063   0.475   37.477
O   26.640   1.933   38.598
N   24.860   0.234   28.949
C   23.779   0.486   29.842
C   22.521   0.628   29.108
C   22.827   0.546   27.722
C   24.301   0.323   27.696
C   21.194   1.043   29.798
C   21.853   0.402   26.521
O   22.224   0.388   25.361
C   20.366   0.282   26.769
N   27.393   -0.118   27.467
C   26.471   0.007   26.434
C   27.220   0.095   25.020
C   28.706   -0.104   25.470
C   28.650   -0.257   27.004
C   26.865   -0.944   23.921
C   29.735   1.013   25.166
C   31.075   0.601   24.511
N   28.777   -0.286   29.965
C   29.818   -0.617   29.082
C   30.927   -1.070   29.802
C   30.558   -0.762   31.142
C   29.283   -0.294   31.209
C   32.175   -1.705   29.214
C   31.101   -0.683   32.474
O   32.274   -0.893   32.793
C   29.866   -0.225   33.433
C   29.677   -1.216   34.478
O   28.954   -2.178   34.324
O   30.430   -0.937   35.607
C   30.292   -1.936   36.684
C   27.320   1.633   39.813
C   26.691   0.631   40.756
C   26.966   0.425   42.055
C   28.187   0.909   42.789
C   26.009   -0.534   42.791
C   25.133   0.065   43.925
C   23.620   -0.016   43.609
C   22.915   0.102   44.977
C   21.844   -1.018   45.278
C   22.346   1.509   45.112
C   23.153   2.373   46.118
C   22.305   2.738   47.358
C   23.260   3.379   48.385
C   23.202   2.714   49.718
C   22.964   4.856   48.549
C   23.453   5.700   47.373
C   22.232   6.375   46.632
C   22.382   7.958   46.765
C   21.406   8.612   47.769
C   22.210   8.478   45.289
H   23.077   1.016   31.817
H   24.555   0.449   25.572
H   30.745   -0.667   27.253
H   26.643   -0.328   34.507
H   24.750   1.508   33.919
H   24.517   -1.023   34.927
H   23.870   -1.173   33.286
H   23.201   -0.009   34.370
H   26.873   2.748   34.392
H   28.210   1.701   34.764
H   25.436   1.329   36.208
H   26.304   2.873   36.399
H   21.048   2.114   29.662
H   21.174   0.862   30.872
H   20.366   0.506   29.334
H   20.124   -0.604   27.356
H   19.799   0.187   25.843
H   19.944   1.190   27.201
H   26.877   1.029   24.575
H   29.088   -1.024   25.027
H   26.493   -1.863   24.375
H   27.680   -1.267   23.274
H   26.152   -0.496   23.229
H   29.995   1.660   26.004
H   29.366   1.770   24.474
H   31.290   1.414   23.817
H   31.103   -0.239   23.818
H   31.883   0.471   25.231
H   31.997   -2.126   28.225
H   32.542   -2.391   29.977
H   32.899   -0.908   29.047
H   30.335   0.703   33.760
H   30.514   -2.966   36.406
H   29.390   -1.796   37.281
H   31.179   -1.772   37.296
H   27.436   2.545   40.399
H   28.311   1.234   39.595
H   25.766   0.161   40.423
H   28.857   0.060   42.929
H   27.965   1.315   43.775
H   28.900   1.488   42.202
H   26.687   -1.294   43.179
H   25.395   -1.111   42.099
H   25.368   1.121   44.057
H   25.419   -0.354   44.890
H   23.477   -0.971   43.103
H   23.421   0.747   42.857
H   23.577   -0.058   45.828
H   22.313   -1.677   46.009
H   21.691   -1.722   44.460
H   20.897   -0.710   45.723
H   21.325   1.340   45.455
H   22.294   1.997   44.138
H   23.257   3.326   45.599
H   24.141   1.975   46.347
H   21.815   1.843   47.741
H   21.550   3.430   46.985
H   24.278   3.324   47.998
H   24.194   2.769   50.165
H   22.992   1.655   49.565
H   22.414   3.226   50.271
H   23.507   5.286   49.391
H   21.881   4.935   48.649
H   24.010   5.112   46.643
H   24.165   6.377   47.845
H   21.306   6.001   47.068
H   22.258   5.987   45.613
H   23.376   8.299   47.053
H   20.726   7.884   48.211
H   20.859   9.435   47.308
H   21.982   9.026   48.596
H   21.142   8.494   45.072
H   22.702   7.775   44.617
H   22.751   9.413   45.140
