140
35
Mg   -1.993   17.213   26.464
C   -2.202   14.927   29.086
C   -2.871   19.691   28.634
C   -2.100   19.358   23.888
C   -1.678   14.542   24.199
N   -2.630   17.272   28.629
C   -2.515   16.270   29.533
C   -2.546   16.811   30.966
C   -3.023   18.346   30.701
C   -2.894   18.490   29.231
C   -4.430   18.669   31.234
C   -1.149   16.634   31.646
C   -1.022   17.506   32.959
C   -1.091   16.708   34.297
O   -1.769   15.691   34.497
O   -0.243   17.267   35.257
N   -2.306   19.287   26.378
C   -2.635   20.115   27.301
C   -2.567   21.462   26.886
C   -2.451   21.413   25.450
C   -2.292   19.949   25.192
C   -2.652   22.685   27.687
C   -2.381   22.472   24.397
O   -2.345   22.222   23.198
C   -2.340   23.962   24.829
N   -1.998   16.906   24.344
C   -2.005   18.040   23.511
C   -1.956   17.596   21.992
C   -1.496   16.029   22.205
C   -1.643   15.816   23.724
C   -3.370   17.777   21.360
C   -0.077   15.873   21.665
C   1.109   16.458   22.455
N   -2.017   15.188   26.617
C   -1.848   14.217   25.574
C   -1.961   12.875   26.093
C   -2.045   13.116   27.511
C   -2.072   14.556   27.727
C   -1.829   11.682   25.270
C   -2.139   12.440   28.828
O   -2.065   11.219   29.169
C   -2.302   13.643   29.957
C   -1.312   13.353   30.944
O   -0.091   13.428   30.836
O   -1.918   12.845   32.062
C   -1.048   12.547   33.196
C   -0.215   16.659   36.553
C   -0.613   17.709   37.657
C   -0.500   17.478   38.969
C   -0.291   16.156   39.685
C   -0.583   18.633   39.878
C   0.797   19.364   40.151
C   0.903   20.805   39.535
C   1.413   21.814   40.624
C   0.751   23.175   40.422
C   2.995   21.857   40.493
C   3.722   22.559   41.624
C   4.496   21.540   42.543
C   4.160   21.721   43.996
C   5.380   21.548   44.828
C   2.854   20.915   44.441
C   1.730   21.870   44.908
C   0.368   21.271   44.738
C   -0.605   22.069   45.607
C   -1.103   21.333   46.900
C   -1.772   22.538   44.727
H   -3.059   20.475   29.370
H   -2.073   19.912   22.948
H   -1.418   13.785   23.456
H   -3.281   16.295   31.583
H   -2.253   19.052   31.012
H   -4.417   19.162   32.207
H   -4.997   17.801   31.569
H   -4.996   19.363   30.612
H   -0.426   16.956   30.895
H   -0.907   15.608   31.922
H   -1.935   18.072   33.146
H   -0.187   18.205   33.007
H   -2.500   22.518   28.754
H   -3.630   23.160   27.624
H   -1.836   23.351   27.406
H   -1.448   24.133   25.432
H   -3.281   24.159   25.343
H   -2.079   24.586   23.975
H   -1.176   18.084   21.408
H   -2.165   15.468   21.552
H   -3.289   18.439   20.498
H   -4.011   18.271   22.090
H   -3.796   16.817   21.068
H   0.083   16.222   20.645
H   0.003   14.790   21.572
H   1.760   17.020   21.786
H   1.783   15.722   22.894
H   0.783   17.150   23.232
H   -1.301   11.856   24.332
H   -2.890   11.491   25.106
H   -1.316   10.924   25.862
H   -3.307   13.419   30.314
H   -1.659   12.047   33.948
H   -0.831   13.547   33.572
H   -0.102   12.031   33.028
H   0.822   16.367   36.721
H   -0.728   15.712   36.722
H   -0.714   18.733   37.297
H   0.780   16.040   39.855
H   -0.573   15.268   39.120
H   -0.807   16.015   40.635
H   -1.139   18.397   40.786
H   -1.131   19.402   39.334
H   1.612   18.764   39.745
H   1.034   19.317   41.214
H   -0.101   21.095   39.227
H   1.511   20.841   38.630
H   1.212   21.490   41.645
H   1.526   23.940   40.390
H   0.066   23.395   41.241
H   0.213   23.176   39.474
H   3.202   22.338   39.537
H   3.602   20.977   40.284
H   3.015   23.109   42.245
H   4.398   23.242   41.110
H   5.548   21.501   42.258
H   4.224   20.503   42.347
H   3.921   22.777   44.118
H   6.147   20.889   44.423
H   5.040   21.269   45.826
H   5.740   22.572   44.928
H   2.996   20.190   45.242
H   2.485   20.223   43.684
H   1.669   22.772   44.298
H   1.909   22.173   45.939
H   0.420   20.254   45.127
H   0.111   21.273   43.679
H   -0.189   23.029   45.913
H   -2.189   21.414   46.960
H   -0.680   21.975   47.673
H   -0.920   20.273   47.079
H   -1.340   23.083   43.888
H   -2.533   23.110   45.257
H   -2.356   21.808   44.166
