140
29
Mg   40.258   41.400   27.379
C   39.383   43.644   29.965
C   41.530   39.288   29.764
C   41.325   39.339   24.908
C   39.637   43.944   25.033
N   40.379   41.411   29.726
C   39.751   42.341   30.465
C   39.834   41.906   31.984
C   40.790   40.703   31.898
C   40.989   40.429   30.404
C   42.201   41.011   32.594
C   38.347   41.833   32.480
C   37.955   42.632   33.762
C   38.996   42.586   34.915
O   39.950   43.374   35.001
O   38.639   41.638   35.770
N   41.224   39.492   27.338
C   41.755   38.835   28.440
C   42.258   37.582   27.978
C   42.102   37.465   26.532
C   41.515   38.763   26.219
C   42.970   36.581   28.870
C   42.559   36.399   25.621
O   42.601   36.644   24.437
C   43.027   35.003   26.099
N   40.589   41.663   25.374
C   40.905   40.637   24.545
C   40.836   41.072   23.108
C   39.952   42.329   23.153
C   40.118   42.699   24.623
C   42.137   41.383   22.321
C   38.431   42.074   22.784
C   37.690   40.784   23.121
N   39.757   43.412   27.407
C   39.580   44.332   26.375
C   39.076   45.570   26.904
C   38.995   45.376   28.302
C   39.360   43.946   28.533
C   38.755   46.744   26.088
C   38.656   45.876   29.602
O   38.213   47.042   29.765
C   38.946   44.929   30.720
C   39.993   45.528   31.680
O   41.200   45.373   31.589
O   39.336   46.170   32.733
C   40.094   46.890   33.754
C   39.479   41.546   37.019
C   38.533   41.612   38.243
C   37.820   42.660   38.831
C   37.797   44.179   38.381
C   36.951   42.409   40.055
C   37.681   41.699   41.225
C   37.210   40.248   41.395
C   38.225   39.174   41.892
C   37.753   37.741   41.438
C   38.427   39.181   43.426
C   39.751   39.640   43.926
C   40.063   39.008   45.334
C   38.945   39.271   46.344
C   39.710   39.917   47.595
C   38.207   37.980   46.728
C   36.645   38.038   46.807
C   36.020   36.641   46.574
C   35.194   36.410   45.300
C   35.429   35.011   44.658
C   33.621   36.762   45.433
H   41.790   38.496   30.469
H   41.713   38.833   24.021
H   39.601   44.649   24.200
H   40.257   42.751   32.527
H   40.221   39.884   32.339
H   42.827   41.613   31.936
H   42.647   40.016   32.573
H   42.087   41.457   33.582
H   38.023   40.824   32.737
H   37.671   42.120   31.674
H   36.994   42.214   34.062
H   37.721   43.605   33.330
H   43.107   36.862   29.914
H   43.998   36.381   28.568
H   42.532   35.584   28.822
H   43.445   34.489   25.233
H   42.198   34.435   26.521
H   43.821   35.122   26.836
H   40.303   40.244   22.641
H   40.269   43.099   22.449
H   42.255   42.438   22.074
H   42.193   40.931   21.330
H   42.948   40.993   22.936
H   38.320   42.402   21.750
H   38.001   42.911   23.334
H   37.213   40.474   22.192
H   36.965   40.969   23.914
H   38.379   39.999   23.434
H   38.982   47.592   26.735
H   37.688   46.878   25.907
H   39.425   46.715   25.230
H   37.977   44.760   31.189
H   40.794   47.641   33.388
H   40.740   46.181   34.272
H   39.496   47.351   34.540
H   40.242   42.306   37.186
H   40.042   40.614   37.059
H   38.309   40.593   38.556
H   38.505   44.368   37.574
H   38.093   44.735   39.271
H   36.870   44.604   37.997
H   36.108   41.860   39.636
H   36.500   43.355   40.357
H   37.338   42.297   42.069
H   38.752   41.861   41.100
H   36.779   39.993   40.427
H   36.402   40.318   42.122
H   39.190   39.403   41.438
H   37.222   37.829   40.490
H   37.015   37.306   42.112
H   38.520   36.966   41.451
H   38.140   38.188   43.769
H   37.800   39.957   43.866
H   39.880   40.717   43.821
H   40.542   39.183   43.331
H   40.987   39.451   45.706
H   40.372   37.973   45.189
H   38.303   40.020   45.881
H   40.780   40.122   47.560
H   39.602   39.359   48.525
H   39.264   40.850   47.942
H   38.607   37.675   47.695
H   38.460   37.159   46.056
H   36.190   38.830   46.213
H   36.418   38.265   47.849
H   35.219   36.628   47.313
H   36.704   35.810   46.744
H   35.758   37.093   44.666
H   34.490   34.559   44.979
H   36.207   34.392   45.104
H   35.480   34.939   43.571
H   33.320   36.632   46.473
H   33.006   36.083   44.843
H   33.438   37.766   45.052
