140
2
Mg   40.645   41.258   27.253
C   40.193   43.457   30.027
C   41.710   38.917   29.458
C   41.846   39.535   24.689
C   39.900   43.973   25.083
N   40.989   41.279   29.501
C   40.480   42.158   30.397
C   40.521   41.599   31.795
C   41.132   40.165   31.563
C   41.385   40.148   30.056
C   42.378   39.951   32.543
C   39.059   41.646   32.528
C   38.948   41.008   33.997
C   38.442   41.907   35.093
O   37.246   41.933   35.395
O   39.435   42.429   35.802
N   41.676   39.502   27.127
C   41.993   38.598   28.109
C   42.496   37.404   27.543
C   42.581   37.559   26.197
C   42.026   38.880   25.936
C   42.917   36.212   28.412
C   43.098   36.585   25.206
O   43.197   36.828   23.991
C   43.243   35.144   25.652
N   40.720   41.637   25.203
C   41.239   40.741   24.355
C   41.023   41.225   22.863
C   40.083   42.473   22.996
C   40.245   42.774   24.479
C   42.396   41.530   22.176
C   38.577   42.230   22.583
C   37.860   41.177   23.436
N   40.157   43.355   27.438
C   39.894   44.316   26.461
C   39.555   45.561   27.139
C   39.695   45.290   28.533
C   40.059   43.922   28.631
C   39.360   46.863   26.366
C   39.573   45.796   29.893
O   39.157   46.876   30.254
C   39.887   44.615   30.855
C   40.969   45.033   31.735
O   42.034   45.441   31.327
O   40.566   45.081   33.036
C   41.570   45.457   34.019
C   38.948   43.206   36.945
C   38.322   42.433   37.988
C   37.984   42.856   39.242
C   38.188   44.298   39.689
C   37.263   41.905   40.239
C   38.070   41.689   41.466
C   38.277   40.174   41.832
C   38.523   39.934   43.368
C   40.000   39.719   43.770
C   37.735   38.652   43.972
C   36.772   38.795   45.146
C   37.026   37.867   46.326
C   35.926   36.783   46.428
C   35.830   36.432   47.974
C   36.437   35.563   45.561
C   35.329   34.886   44.778
C   35.881   34.277   43.485
C   35.475   35.170   42.250
C   36.641   35.231   41.237
C   34.194   34.696   41.625
H   41.934   38.228   30.274
H   42.100   38.943   23.807
H   39.578   44.757   24.395
H   41.066   42.255   32.474
H   40.471   39.327   31.780
H   42.847   40.868   32.900
H   43.082   39.331   31.987
H   42.129   39.340   33.411
H   38.247   41.313   31.882
H   38.808   42.704   32.603
H   39.912   40.599   34.302
H   38.286   40.152   33.864
H   42.301   35.321   28.293
H   42.882   36.474   29.470
H   43.940   35.895   28.209
H   44.097   35.168   26.329
H   43.618   34.554   24.817
H   42.301   34.757   26.042
H   40.451   40.519   22.261
H   40.369   43.313   22.363
H   42.284   42.381   21.504
H   42.551   40.630   21.581
H   43.290   41.457   22.794
H   38.555   41.919   21.538
H   38.008   43.151   22.714
H   37.780   40.291   22.806
H   36.934   41.575   23.851
H   38.524   40.816   24.221
H   38.360   46.958   25.944
H   40.096   46.893   25.562
H   39.598   47.679   27.048
H   38.965   44.381   31.388
H   42.544   45.160   33.629
H   41.301   45.029   34.985
H   41.628   46.545   34.020
H   38.255   43.958   36.567
H   39.808   43.736   37.354
H   38.296   41.356   37.823
H   39.142   44.416   40.204
H   37.409   44.614   40.383
H   38.197   44.948   38.814
H   37.024   40.948   39.774
H   36.254   42.308   40.332
H   37.722   42.277   42.316
H   39.103   41.979   41.276
H   39.156   39.854   41.273
H   37.388   39.684   41.435
H   38.205   40.744   44.025
H   40.545   40.608   43.453
H   40.503   38.787   43.514
H   39.995   39.707   44.860
H   38.533   37.946   44.199
H   37.073   38.342   43.163
H   35.782   38.758   44.692
H   36.966   39.804   45.512
H   36.980   38.549   47.175
H   38.017   37.413   46.338
H   34.965   37.109   46.029
H   35.646   35.361   48.054
H   34.937   36.921   48.366
H   36.738   36.730   48.496
H   36.972   34.802   46.130
H   37.228   35.925   44.904
H   34.472   35.543   44.629
H   35.034   34.080   45.450
H   35.406   33.296   43.495
H   36.963   34.187   43.582
H   35.326   36.212   42.532
H   36.874   36.265   40.985
H   36.307   34.714   40.337
H   37.594   34.787   41.527
H   33.588   34.227   42.400
H   34.418   33.900   40.915
H   33.631   35.550   41.250
