140
29
Mg   29.349   58.902   41.052
C   26.327   57.491   40.297
C   30.887   56.176   39.455
C   32.278   60.615   41.158
C   27.694   61.821   41.887
N   28.628   57.113   40.045
C   27.350   56.700   39.830
C   27.222   55.311   39.073
C   28.691   54.843   39.130
C   29.460   56.135   39.484
C   28.862   53.652   40.193
C   26.790   55.693   37.601
C   25.823   54.778   36.844
C   25.932   54.655   35.353
O   26.692   53.856   34.789
O   25.136   55.563   34.705
N   31.338   58.361   40.570
C   31.756   57.246   39.950
C   33.212   57.335   39.814
C   33.567   58.574   40.269
C   32.377   59.275   40.703
C   33.974   56.115   39.367
C   35.091   59.003   40.296
O   36.009   58.276   39.786
C   35.543   60.315   40.982
N   29.840   61.019   41.278
C   31.166   61.366   41.449
C   31.222   62.929   41.668
C   29.707   63.341   41.796
C   29.076   61.992   41.646
C   32.094   63.356   42.923
C   28.966   64.427   40.845
C   28.684   65.835   41.431
N   27.457   59.621   41.124
C   26.909   60.775   41.601
C   25.467   60.742   41.535
C   25.193   59.428   41.131
C   26.433   58.796   40.834
C   24.401   61.769   41.971
C   24.171   58.377   41.005
O   23.001   58.373   41.400
C   24.915   57.211   40.377
C   24.534   56.034   41.136
O   24.856   55.850   42.276
O   23.900   55.032   40.317
C   23.668   53.708   40.914
C   25.233   55.489   33.231
C   26.357   56.368   32.678
C   26.472   57.056   31.538
C   25.433   57.027   30.453
C   27.660   57.986   31.258
C   28.982   57.294   30.824
C   28.965   56.354   29.556
C   29.478   54.920   29.836
C   28.866   53.859   28.961
C   31.028   54.808   29.536
C   31.747   55.056   30.866
C   32.416   56.412   30.957
C   33.980   56.284   30.974
C   34.529   57.220   32.128
C   34.635   56.761   29.638
C   34.777   55.660   28.527
C   36.168   55.036   28.561
C   36.145   53.630   29.237
C   37.470   53.570   30.105
C   36.148   52.551   28.176
H   31.452   55.309   39.106
H   33.229   61.111   41.368
H   27.116   62.718   42.121
H   26.592   54.614   39.625
H   28.946   54.402   38.167
H   29.522   53.891   41.027
H   29.189   52.718   39.737
H   27.981   53.281   40.718
H   27.654   55.848   36.955
H   26.172   56.590   37.618
H   24.803   55.136   36.985
H   25.787   53.762   37.239
H   34.137   56.242   38.296
H   33.417   55.216   39.632
H   34.860   56.210   39.995
H   35.434   61.196   40.349
H   36.600   60.174   41.209
H   35.059   60.445   41.949
H   31.803   63.340   40.842
H   29.478   63.819   42.748
H   31.497   63.331   43.834
H   32.325   64.421   42.941
H   32.956   62.714   43.103
H   27.996   64.021   40.560
H   29.692   64.433   40.032
H   27.601   65.852   41.546
H   28.902   66.700   40.804
H   29.198   65.947   42.386
H   24.777   61.909   42.984
H   23.411   61.322   41.872
H   24.457   62.777   41.559
H   24.433   57.055   39.412
H   23.036   53.799   41.798
H   24.555   53.145   41.204
H   23.176   53.024   40.224
H   24.334   55.987   32.866
H   25.243   54.470   32.844
H   27.208   56.599   33.319
H   25.929   57.100   29.486
H   24.748   57.873   30.499
H   24.808   56.143   30.581
H   27.914   58.506   32.183
H   27.327   58.799   30.614
H   29.258   56.807   31.760
H   29.735   58.067   30.675
H   29.550   56.809   28.757
H   27.925   56.186   29.276
H   29.121   54.658   30.832
H   27.814   54.137   28.897
H   29.014   52.845   29.335
H   29.152   53.892   27.910
H   31.264   55.347   28.618
H   31.303   53.805   29.209
H   32.468   54.240   30.824
H   31.110   54.935   31.743
H   31.993   56.948   31.807
H   32.154   57.048   30.111
H   34.294   55.269   31.215
H   35.589   57.000   32.250
H   34.005   56.908   33.032
H   34.598   58.273   31.857
H   35.604   57.258   29.691
H   33.926   57.494   29.254
H   34.607   56.278   27.645
H   33.988   54.927   28.691
H   36.880   55.721   29.023
H   36.571   54.937   27.552
H   35.297   53.488   29.908
H   38.076   54.445   29.873
H   38.097   52.718   29.841
H   37.144   53.580   31.145
H   36.532   51.612   28.575
H   36.828   52.795   27.360
H   35.151   52.464   27.744
