140
5
Mg   25.536   51.023   26.391
C   23.282   52.097   28.916
C   27.572   49.682   28.816
C   27.932   50.762   24.047
C   23.615   52.765   24.158
N   25.456   51.130   28.654
C   24.404   51.418   29.487
C   24.723   51.034   30.950
C   26.129   50.369   30.827
C   26.363   50.365   29.303
C   27.218   50.943   31.802
C   23.639   50.131   31.576
C   23.765   49.694   33.085
C   24.368   50.663   34.144
O   24.648   51.863   33.972
O   24.607   49.979   35.298
N   27.369   50.075   26.386
C   28.045   49.588   27.439
C   29.315   48.905   26.933
C   29.448   49.349   25.589
C   28.257   50.158   25.300
C   30.175   48.069   27.858
C   30.607   49.013   24.597
O   30.576   49.351   23.405
C   31.720   48.138   24.992
N   25.915   51.969   24.435
C   26.856   51.596   23.568
C   26.630   52.174   22.156
C   25.129   52.454   22.225
C   24.853   52.375   23.730
C   27.520   53.420   21.933
C   24.142   51.507   21.457
C   24.105   51.761   19.861
N   23.887   52.234   26.411
C   23.102   52.733   25.428
C   21.818   53.108   25.805
C   21.892   53.010   27.190
C   23.110   52.365   27.535
C   20.701   53.680   24.989
C   21.173   53.261   28.450
O   20.038   53.640   28.629
C   22.129   52.747   29.584
C   22.590   53.825   30.460
O   23.182   54.873   30.219
O   22.213   53.487   31.744
C   22.434   54.412   32.890
C   25.054   50.902   36.377
C   24.829   50.120   37.683
C   25.301   50.404   38.897
C   26.137   51.594   39.250
C   25.115   49.521   40.090
C   25.942   48.244   40.062
C   26.965   48.057   41.269
C   27.130   46.661   41.841
C   27.594   45.583   40.799
C   25.888   46.344   42.721
C   26.315   46.144   44.180
C   25.998   47.469   44.932
C   26.933   48.026   46.064
C   26.626   47.360   47.350
C   26.785   49.540   46.183
C   28.013   50.372   45.662
C   27.652   51.897   45.428
C   28.108   52.387   44.053
C   28.169   53.945   44.015
C   27.239   51.796   42.870
H   28.178   49.145   29.549
H   28.652   50.408   23.307
H   22.959   53.218   23.411
H   24.681   51.984   31.482
H   25.963   49.382   31.259
H   27.862   51.606   31.224
H   27.892   50.110   32.003
H   26.795   51.578   32.581
H   23.892   49.211   31.049
H   22.580   50.285   31.365
H   24.333   48.763   33.089
H   22.718   49.581   33.367
H   29.908   48.109   28.914
H   31.187   48.474   27.819
H   30.211   47.071   27.421
H   31.131   47.223   25.057
H   32.160   48.327   25.971
H   32.479   48.096   24.211
H   26.872   51.394   21.435
H   24.972   53.453   21.819
H   27.782   53.670   22.961
H   26.929   54.277   21.609
H   28.435   53.193   21.385
H   23.104   51.453   21.784
H   24.647   50.549   21.582
H   23.537   50.989   19.342
H   25.089   51.833   19.397
H   23.614   52.728   19.753
H   20.847   53.697   23.909
H   20.718   54.705   25.358
H   19.732   53.245   25.231
H   21.629   51.968   30.160
H   23.376   54.078   33.326
H   21.592   54.310   33.574
H   22.403   55.452   32.566
H   24.515   51.834   36.546
H   26.098   51.206   36.302
H   24.156   49.298   37.441
H   27.071   51.246   39.691
H   25.752   52.283   40.002
H   26.219   52.256   38.389
H   24.047   49.321   40.005
H   25.274   50.140   40.974
H   26.552   48.175   39.161
H   25.311   47.359   39.989
H   26.988   48.825   42.042
H   27.929   48.101   40.762
H   28.061   46.651   42.406
H   27.504   46.112   39.850
H   26.912   44.735   40.734
H   28.654   45.342   40.880
H   25.341   45.438   42.459
H   25.138   47.128   42.617
H   27.383   45.936   44.241
H   25.772   45.307   44.621
H   24.995   47.319   45.332
H   25.683   48.227   44.216
H   27.979   47.828   45.833
H   26.160   46.389   47.179
H   26.043   47.916   48.085
H   27.555   47.210   47.899
H   26.565   49.822   47.213
H   25.954   49.913   45.584
H   28.351   49.933   44.723
H   28.852   50.457   46.353
H   28.225   52.436   46.183
H   26.595   52.106   45.592
H   29.119   52.026   43.866
H   29.170   54.369   43.940
H   27.763   54.508   44.856
H   27.611   54.401   43.197
H   26.445   52.430   42.478
H   26.993   50.815   43.277
H   27.896   51.725   42.004
