140
38
Mg   9.206   3.705   27.868
C   10.562   1.950   30.597
C   7.299   5.466   29.985
C   7.422   4.874   25.261
C   10.487   1.156   25.711
N   8.802   3.491   30.006
C   9.567   2.896   30.986
C   9.175   3.444   32.420
C   7.949   4.289   32.131
C   7.937   4.377   30.621
C   6.598   3.837   32.798
C   10.412   4.336   33.093
C   10.866   3.780   34.471
C   9.780   3.564   35.542
O   8.838   4.314   35.702
O   10.101   2.501   36.447
N   7.721   5.176   27.657
C   7.134   5.878   28.669
C   6.367   6.953   28.072
C   6.411   6.795   26.678
C   7.166   5.537   26.458
C   5.652   8.022   28.872
C   5.677   7.492   25.557
O   5.575   7.095   24.419
C   5.073   8.897   25.916
N   9.013   3.077   25.707
C   8.247   3.745   24.904
C   8.216   3.194   23.465
C   9.256   1.967   23.584
C   9.564   2.031   25.057
C   6.801   2.987   22.882
C   10.587   2.148   22.681
C   11.120   0.950   21.966
N   10.370   2.001   28.075
C   10.899   1.150   27.102
C   11.854   0.240   27.704
C   11.833   0.557   29.054
C   10.842   1.516   29.237
C   12.639   -0.787   26.972
C   12.383   0.254   30.388
O   13.182   -0.571   30.857
C   11.504   1.120   31.430
C   10.765   0.209   32.357
O   9.662   -0.281   32.120
O   11.525   0.126   33.549
C   10.796   -0.354   34.744
C   9.318   2.381   37.672
C   9.968   3.400   38.644
C   10.684   3.314   39.789
C   11.102   1.982   40.432
C   10.828   4.498   40.757
C   9.636   5.043   41.550
C   8.857   6.141   40.755
C   8.382   7.408   41.612
C   6.889   7.239   42.202
C   8.647   8.837   40.988
C   9.635   9.786   41.801
C   8.924   10.633   42.858
C   9.442   10.582   44.296
C   9.424   11.930   44.938
C   8.752   9.468   45.000
C   9.481   9.186   46.362
C   8.590   9.374   47.625
C   8.712   8.246   48.621
C   7.530   7.256   48.595
C   8.943   8.769   50.024
H   6.801   6.188   30.636
H   6.972   5.253   24.340
H   10.758   0.278   25.121
H   8.867   2.540   32.945
H   8.089   5.344   32.367
H   6.041   3.251   32.068
H   5.997   4.656   33.195
H   6.836   3.155   33.614
H   10.218   5.407   33.151
H   11.277   4.123   32.465
H   11.496   4.583   34.855
H   11.354   2.821   34.293
H   6.007   9.027   28.641
H   5.815   7.924   29.946
H   4.567   8.008   28.773
H   5.929   9.397   26.370
H   4.305   8.612   26.635
H   4.804   9.301   24.940
H   8.614   3.881   22.718
H   8.919   0.954   23.365
H   6.582   3.473   21.931
H   6.081   3.487   23.531
H   6.605   1.926   22.730
H   11.295   2.687   23.311
H   10.373   2.919   21.940
H   10.313   0.249   21.754
H   11.891   0.611   22.658
H   11.554   1.310   21.033
H   12.202   -1.279   26.103
H   12.961   -1.527   27.705
H   13.458   -0.267   26.476
H   12.251   1.665   32.007
H   9.789   -0.711   34.528
H   10.818   0.293   35.621
H   11.385   -1.227   35.023
H   9.318   1.395   38.137
H   8.306   2.725   37.454
H   9.531   4.395   38.554
H   10.475   1.768   41.298
H   12.101   2.174   40.823
H   10.960   1.163   39.727
H   11.172   5.224   40.020
H   11.605   4.406   41.516
H   9.841   5.234   42.603
H   8.912   4.228   41.567
H   8.018   5.701   40.216
H   9.499   6.563   39.982
H   9.050   7.327   42.469
H   6.854   7.354   43.285
H   6.387   6.376   41.764
H   6.279   8.067   41.839
H   7.669   9.306   40.884
H   9.081   8.668   40.003
H   10.178   10.374   41.062
H   10.369   9.181   42.334
H   7.846   10.473   42.831
H   9.067   11.649   42.490
H   10.495   10.302   44.267
H   8.954   12.692   44.316
H   10.428   12.309   45.133
H   8.973   11.877   45.929
H   8.963   8.600   44.375
H   7.675   9.588   45.120
H   10.376   9.801   46.453
H   9.918   8.190   46.439
H   7.581   9.399   47.215
H   8.778   10.310   48.150
H   9.627   7.686   48.430
H   6.763   7.393   47.833
H   7.075   7.362   49.580
H   7.903   6.247   48.418
H   8.181   8.557   50.774
H   9.087   9.850   50.014
H   9.774   8.273   50.526
