140
27
Mg   -2.154   34.851   26.951
C   -3.131   33.364   29.763
C   -0.320   37.257   28.883
C   -1.761   36.642   24.137
C   -4.128   32.639   25.168
N   -1.716   35.199   29.041
C   -2.241   34.387   29.995
C   -1.751   34.850   31.442
C   -0.879   36.146   31.125
C   -0.999   36.228   29.626
C   -1.421   37.343   31.960
C   -0.983   33.676   32.084
C   -1.403   33.268   33.532
C   -0.351   33.208   34.605
O   0.847   32.992   34.391
O   -0.978   33.405   35.769
N   -1.053   36.677   26.571
C   -0.420   37.529   27.488
C   -0.078   38.733   26.822
C   -0.535   38.620   25.432
C   -1.105   37.314   25.299
C   0.586   39.927   27.477
C   -0.412   39.645   24.299
O   -0.596   39.358   23.114
C   -0.088   41.069   24.588
N   -2.839   34.716   24.920
C   -2.587   35.601   23.998
C   -3.274   35.305   22.595
C   -3.871   33.829   22.823
C   -3.607   33.691   24.405
C   -4.413   36.357   22.458
C   -3.122   32.777   21.879
C   -1.724   32.235   22.414
N   -3.356   33.294   27.325
C   -4.099   32.471   26.537
C   -4.721   31.437   27.339
C   -4.443   31.837   28.631
C   -3.599   32.947   28.555
C   -5.614   30.336   27.001
C   -4.638   31.463   30.000
O   -5.276   30.540   30.512
C   -3.852   32.560   30.824
C   -4.965   33.295   31.529
O   -5.736   34.039   31.029
O   -4.844   33.007   32.906
C   -5.931   33.481   33.753
C   -0.157   33.357   36.924
C   -0.796   34.151   38.079
C   -0.172   34.824   39.083
C   1.277   35.173   39.119
C   -0.971   35.188   40.333
C   -1.576   36.658   40.336
C   -0.958   37.505   41.459
C   -1.533   37.088   42.922
C   -2.745   37.953   43.198
C   -0.465   37.129   44.009
C   0.043   35.756   44.506
C   1.089   35.927   45.724
C   2.389   35.257   45.219
C   3.209   34.563   46.385
C   3.278   36.308   44.466
C   3.617   35.852   43.046
C   4.666   34.701   43.110
C   5.876   34.952   42.167
C   5.363   34.632   40.740
C   7.059   34.020   42.569
H   0.301   37.999   29.389
H   -1.736   37.226   23.214
H   -4.601   31.929   24.487
H   -2.664   35.124   31.970
H   0.172   36.019   31.383
H   -2.451   37.637   31.757
H   -0.811   38.229   31.785
H   -1.360   37.138   33.029
H   0.065   33.976   32.120
H   -1.023   32.781   31.463
H   -1.881   32.289   33.495
H   -2.176   33.959   33.870
H   1.292   39.711   28.278
H   -0.126   40.634   27.903
H   1.249   40.334   26.714
H   -0.517   41.545   23.707
H   0.974   41.314   24.624
H   -0.673   41.386   25.451
H   -2.605   35.361   21.737
H   -4.925   33.699   22.576
H   -4.545   36.946   23.365
H   -5.368   35.851   22.323
H   -4.123   37.015   21.638
H   -2.972   33.243   20.905
H   -3.762   31.905   21.748
H   -0.947   32.491   21.694
H   -1.880   31.164   22.548
H   -1.486   32.622   23.404
H   -5.671   30.138   25.931
H   -6.576   30.606   27.437
H   -5.172   29.562   27.629
H   -3.073   32.132   31.456
H   -6.184   32.719   34.491
H   -6.804   33.860   33.222
H   -5.531   34.377   34.227
H   0.872   33.670   36.744
H   -0.164   32.292   37.155
H   -1.852   33.930   38.232
H   1.364   36.221   39.408
H   1.793   35.027   38.170
H   1.717   34.622   39.950
H   -0.405   35.156   41.264
H   -1.708   34.396   40.463
H   -2.652   36.580   40.493
H   -1.441   37.092   39.345
H   -1.152   38.574   41.370
H   0.129   37.433   41.475
H   -1.902   36.064   42.864
H   -3.455   37.534   43.911
H   -3.287   37.929   42.252
H   -2.513   38.988   43.450
H   -1.023   37.574   44.833
H   0.335   37.852   43.852
H   0.465   35.334   43.593
H   -0.826   35.221   44.888
H   0.668   35.428   46.597
H   1.265   36.990   45.885
H   2.226   34.473   44.480
H   3.003   35.139   47.287
H   4.238   34.783   46.102
H   3.116   33.484   46.512
H   4.193   36.508   45.024
H   2.808   37.284   44.345
H   4.065   36.697   42.522
H   2.760   35.513   42.463
H   4.079   33.823   42.841
H   5.042   34.478   44.109
H   6.304   35.953   42.121
H   6.054   33.889   40.342
H   5.494   35.572   40.202
H   4.325   34.307   40.662
H   7.109   33.134   41.936
H   6.931   33.584   43.560
H   7.948   34.650   42.587
