140
9
Mg   -0.255   43.288   24.611
C   2.028   42.987   27.336
C   -2.733   42.348   26.842
C   -2.339   43.308   22.057
C   2.544   43.583   22.422
N   -0.335   42.835   26.875
C   0.719   42.825   27.750
C   0.280   42.603   29.194
C   -1.273   42.151   29.001
C   -1.494   42.483   27.515
C   -1.661   40.674   29.333
C   0.554   43.912   30.054
C   1.052   43.637   31.441
C   0.801   42.254   32.040
O   1.522   41.270   32.031
O   -0.380   42.283   32.749
N   -2.273   43.076   24.453
C   -3.057   42.654   25.480
C   -4.385   42.617   24.842
C   -4.407   42.832   23.514
C   -2.924   43.065   23.277
C   -5.566   42.195   25.645
C   -5.542   42.904   22.447
O   -5.359   43.208   21.271
C   -6.928   42.638   22.896
N   0.046   43.369   22.552
C   -0.964   43.424   21.680
C   -0.549   43.761   20.196
C   1.010   43.914   20.430
C   1.211   43.657   21.908
C   -1.058   42.727   19.158
C   1.421   45.311   19.902
C   0.972   46.514   20.677
N   1.856   43.221   24.786
C   2.854   43.359   23.803
C   4.089   43.384   24.444
C   3.850   43.130   25.806
C   2.438   42.984   25.975
C   5.394   43.460   23.844
C   4.484   42.957   27.132
O   5.681   43.008   27.468
C   3.268   42.974   28.137
C   3.498   41.763   28.938
O   2.988   40.641   28.719
O   4.281   42.176   30.000
C   4.655   41.072   30.852
C   -0.835   41.121   33.502
C   -1.970   41.285   34.452
C   -2.485   40.355   35.308
C   -1.890   38.956   35.434
C   -3.661   40.748   36.230
C   -3.517   42.098   36.997
C   -4.369   43.188   36.371
C   -5.614   43.612   37.209
C   -5.231   44.905   37.998
C   -6.947   43.690   36.366
C   -7.735   42.336   36.502
C   -9.162   42.447   37.206
C   -10.119   41.249   37.006
C   -11.030   41.380   35.712
C   -11.004   41.183   38.223
C   -10.724   39.966   39.052
C   -11.760   38.828   38.679
C   -13.222   39.161   39.128
C   -13.294   39.031   40.636
C   -14.289   38.333   38.408
H   -3.503   42.035   27.550
H   -3.030   43.295   21.212
H   3.408   43.894   21.832
H   0.731   41.666   29.519
H   -1.853   42.937   29.483
H   -2.262   40.708   30.242
H   -0.856   39.994   29.613
H   -2.303   40.244   28.565
H   -0.390   44.452   30.135
H   1.178   44.610   29.495
H   0.535   44.376   32.052
H   2.128   43.782   31.344
H   -6.124   41.440   25.092
H   -6.211   43.062   25.787
H   -5.238   41.826   26.617
H   -7.165   41.575   22.943
H   -7.505   43.106   22.099
H   -7.236   43.230   23.758
H   -0.953   44.754   20.004
H   1.553   43.157   19.864
H   -0.221   42.154   18.760
H   -1.523   43.249   18.321
H   -1.751   41.989   19.563
H   1.012   45.411   18.896
H   2.509   45.339   19.838
H   1.851   46.987   21.113
H   0.434   46.221   21.578
H   0.466   47.238   20.039
H   6.058   43.376   24.704
H   5.555   44.364   23.256
H   5.582   42.707   23.078
H   3.305   43.868   28.759
H   5.692   41.249   31.136
H   4.659   40.039   30.504
H   4.057   41.031   31.763
H   -0.022   40.725   34.111
H   -1.139   40.320   32.828
H   -2.531   42.216   34.370
H   -1.710   38.733   36.485
H   -0.893   38.899   34.997
H   -2.659   38.367   34.934
H   -3.901   39.925   36.903
H   -4.587   40.731   35.654
H   -2.434   42.206   37.059
H   -3.836   41.935   38.027
H   -4.686   42.886   35.372
H   -3.602   43.926   36.134
H   -5.777   42.975   38.078
H   -5.792   45.768   37.637
H   -4.212   45.275   37.885
H   -5.305   44.754   39.075
H   -6.625   43.830   35.334
H   -7.515   44.569   36.670
H   -7.128   41.603   37.034
H   -7.926   41.981   35.489
H   -9.602   43.386   36.870
H   -8.933   42.531   38.268
H   -9.421   40.425   36.858
H   -12.073   41.639   35.893
H   -10.960   40.464   35.125
H   -10.586   42.202   35.151
H   -12.048   41.253   37.918
H   -10.885   42.000   38.935
H   -10.790   40.182   40.118
H   -9.709   39.612   38.867
H   -11.365   37.882   39.048
H   -11.803   38.725   37.595
H   -13.463   40.216   38.995
H   -14.128   39.568   41.087
H   -12.348   39.362   41.064
H   -13.501   38.085   41.137
H   -14.633   38.859   37.518
H   -15.136   37.951   38.977
H   -13.787   37.423   38.079
