140
28
Mg   46.731   44.880   43.480
C   43.337   44.288   43.476
C   47.133   41.365   42.988
C   49.895   45.493   42.586
C   46.056   48.325   43.493
N   45.435   43.088   43.279
C   44.042   43.109   43.386
C   43.410   41.744   43.206
C   44.719   40.756   43.398
C   45.821   41.806   43.144
C   44.814   40.038   44.794
C   42.661   41.513   41.832
C   43.458   42.165   40.669
C   42.741   42.182   39.296
O   41.511   42.077   39.140
O   43.628   42.446   38.244
N   48.387   43.630   42.888
C   48.302   42.252   42.699
C   49.610   41.795   42.317
C   50.466   42.911   42.081
C   49.591   44.098   42.524
C   49.940   40.296   42.126
C   51.812   42.884   41.466
O   52.250   41.889   40.968
C   52.591   44.149   41.214
N   47.824   46.625   43.140
C   49.141   46.625   42.942
C   49.735   48.038   43.028
C   48.505   48.927   42.827
C   47.349   47.907   43.150
C   50.748   48.339   44.218
C   48.256   49.726   41.506
C   48.295   51.284   41.680
N   45.024   46.114   43.663
C   44.922   47.453   43.675
C   43.579   47.801   43.834
C   42.928   46.572   43.627
C   43.825   45.582   43.558
C   43.011   49.228   43.837
C   41.565   45.952   43.502
O   40.417   46.463   43.436
C   41.858   44.492   43.469
C   41.046   43.889   44.590
O   39.946   43.406   44.515
O   41.741   44.024   45.837
C   41.094   43.304   46.959
C   42.935   42.777   36.976
C   44.094   42.779   35.970
C   44.669   41.761   35.343
C   44.247   40.350   35.481
C   46.016   41.957   34.572
C   46.106   42.481   33.160
C   44.818   41.987   32.299
C   44.618   42.562   30.857
C   43.663   43.781   30.792
C   44.139   41.587   29.661
C   44.866   41.922   28.375
C   43.972   42.080   27.129
C   44.436   43.204   26.194
C   43.931   44.535   26.754
C   44.126   42.735   24.747
C   45.003   43.433   23.690
C   45.961   42.440   22.896
C   47.322   43.043   22.678
C   47.198   44.232   21.683
C   48.318   41.960   22.031
H   47.160   40.286   42.824
H   50.931   45.736   42.341
H   45.873   49.391   43.645
H   42.671   41.699   44.006
H   44.763   39.923   42.697
H   45.603   40.539   45.355
H   45.018   38.990   44.577
H   43.879   39.989   45.353
H   41.588   41.680   41.927
H   42.858   40.463   41.613
H   44.339   41.555   40.469
H   43.671   43.222   40.832
H   50.158   40.093   41.077
H   49.123   39.658   42.460
H   50.759   39.933   42.748
H   52.868   44.518   42.202
H   52.125   44.885   40.560
H   53.494   43.857   40.678
H   50.321   48.210   42.125
H   48.491   49.666   43.628
H   50.747   47.496   44.909
H   50.351   49.196   44.763
H   51.747   48.626   43.888
H   47.251   49.561   41.119
H   49.005   49.402   40.783
H   48.662   51.465   42.690
H   47.269   51.598   41.491
H   48.961   51.755   40.957
H   41.980   49.132   43.497
H   43.473   49.804   43.035
H   42.946   49.761   44.785
H   41.422   44.116   42.544
H   41.912   42.931   47.575
H   40.621   42.367   46.663
H   40.457   43.925   47.588
H   42.374   43.710   36.930
H   42.269   41.936   36.782
H   44.644   43.714   35.871
H   44.913   39.893   36.213
H   44.263   39.738   34.579
H   43.270   40.270   35.957
H   46.559   41.012   34.543
H   46.654   42.467   35.293
H   47.030   42.182   32.666
H   46.138   43.568   33.219
H   43.922   42.322   32.823
H   44.753   40.900   32.354
H   45.624   42.918   30.638
H   43.058   43.933   31.686
H   42.930   43.694   29.990
H   44.302   44.614   30.501
H   43.053   41.553   29.580
H   44.331   40.570   30.004
H   45.605   41.145   28.181
H   45.503   42.794   28.521
H   42.916   42.157   27.385
H   44.160   41.144   26.603
H   45.518   43.327   26.224
H   43.930   44.535   27.844
H   42.970   44.849   26.347
H   44.597   45.317   26.387
H   43.086   43.032   24.611
H   44.135   41.667   24.531
H   45.557   44.294   24.065
H   44.285   43.789   22.951
H   45.575   42.222   21.900
H   45.988   41.516   23.474
H   47.728   43.366   23.636
H   47.756   44.137   20.752
H   47.599   45.132   22.148
H   46.156   44.448   21.449
H   49.038   41.658   22.791
H   48.967   42.442   21.300
H   47.785   41.148   21.536
